Program Version,EnergyPlus, Version 9.5.0-de239b2e5f, YMD=2025.08.12 16:07
! This file shows details about the branches, nodes, and other
! elements of the flow connections.
! This file is intended for use in "debugging" potential problems
! that may also be detected by the program, but may be more easily
! identified by "eye".
! This file is also intended to support software which draws a
! schematic diagram of the HVAC system.
! ===============================================================
! #Nodes,<Number of Unique Nodes>
 #Nodes,774
! <Node>,<NodeNumber>,<Node Name>,<Node Fluid Type>,<# Times Node Referenced After Definition>
 Node,1,ZONE INLET NODE_UNIT1_FRONTROW_BOTTOMFLOOR,Air,3
 Node,2,HPWH ZONE INLET NODE_UNIT1_FRONTROW_BOTTOMFLOOR,Air,3
 Node,3,OA INLET NODE_UNIT1_FRONTROW_BOTTOMFLOOR,Air,3
 Node,4,ZONE EXHAUST NODE_UNIT1_FRONTROW_BOTTOMFLOOR,Air,3
 Node,5,ZONE EXHAUST NODE1_UNIT1_FRONTROW_BOTTOMFLOOR,Air,3
 Node,6,ZONE INLET NODE_UNIT2_FRONTROW_BOTTOMFLOOR,Air,3
 Node,7,HPWH ZONE INLET NODE_UNIT2_FRONTROW_BOTTOMFLOOR,Air,3
 Node,8,OA INLET NODE_UNIT2_FRONTROW_BOTTOMFLOOR,Air,3
 Node,9,ZONE EXHAUST NODE_UNIT2_FRONTROW_BOTTOMFLOOR,Air,3
 Node,10,ZONE EXHAUST NODE1_UNIT2_FRONTROW_BOTTOMFLOOR,Air,3
 Node,11,ZONE INLET NODE_UNIT3_FRONTROW_BOTTOMFLOOR,Air,3
 Node,12,HPWH ZONE INLET NODE_UNIT3_FRONTROW_BOTTOMFLOOR,Air,3
 Node,13,OA INLET NODE_UNIT3_FRONTROW_BOTTOMFLOOR,Air,3
 Node,14,ZONE EXHAUST NODE_UNIT3_FRONTROW_BOTTOMFLOOR,Air,3
 Node,15,ZONE EXHAUST NODE1_UNIT3_FRONTROW_BOTTOMFLOOR,Air,3
 Node,16,ZONE INLET NODE_UNIT1_BACKROW_BOTTOMFLOOR,Air,3
 Node,17,HPWH ZONE INLET NODE_UNIT1_BACKROW_BOTTOMFLOOR,Air,3
 Node,18,OA INLET NODE_UNIT1_BACKROW_BOTTOMFLOOR,Air,3
 Node,19,ZONE EXHAUST NODE_UNIT1_BACKROW_BOTTOMFLOOR,Air,3
 Node,20,ZONE EXHAUST NODE1_UNIT1_BACKROW_BOTTOMFLOOR,Air,3
 Node,21,ZONE INLET NODE_UNIT2_BACKROW_BOTTOMFLOOR,Air,3
 Node,22,HPWH ZONE INLET NODE_UNIT2_BACKROW_BOTTOMFLOOR,Air,3
 Node,23,OA INLET NODE_UNIT2_BACKROW_BOTTOMFLOOR,Air,3
 Node,24,ZONE EXHAUST NODE_UNIT2_BACKROW_BOTTOMFLOOR,Air,3
 Node,25,ZONE EXHAUST NODE1_UNIT2_BACKROW_BOTTOMFLOOR,Air,3
 Node,26,ZONE INLET NODE_UNIT3_BACKROW_BOTTOMFLOOR,Air,3
 Node,27,HPWH ZONE INLET NODE_UNIT3_BACKROW_BOTTOMFLOOR,Air,3
 Node,28,OA INLET NODE_UNIT3_BACKROW_BOTTOMFLOOR,Air,3
 Node,29,ZONE EXHAUST NODE_UNIT3_BACKROW_BOTTOMFLOOR,Air,3
 Node,30,ZONE EXHAUST NODE1_UNIT3_BACKROW_BOTTOMFLOOR,Air,3
 Node,31,ZONE INLET NODE_UNIT1_FRONTROW_MIDDLEFLOOR,Air,3
 Node,32,HPWH ZONE INLET NODE_UNIT1_FRONTROW_MIDDLEFLOOR,Air,3
 Node,33,OA INLET NODE_UNIT1_FRONTROW_MIDDLEFLOOR,Air,3
 Node,34,ZONE EXHAUST NODE_UNIT1_FRONTROW_MIDDLEFLOOR,Air,3
 Node,35,ZONE EXHAUST NODE1_UNIT1_FRONTROW_MIDDLEFLOOR,Air,3
 Node,36,ZONE INLET NODE_UNIT2_FRONTROW_MIDDLEFLOOR,Air,3
 Node,37,HPWH ZONE INLET NODE_UNIT2_FRONTROW_MIDDLEFLOOR,Air,3
 Node,38,OA INLET NODE_UNIT2_FRONTROW_MIDDLEFLOOR,Air,3
 Node,39,ZONE EXHAUST NODE_UNIT2_FRONTROW_MIDDLEFLOOR,Air,3
 Node,40,ZONE EXHAUST NODE1_UNIT2_FRONTROW_MIDDLEFLOOR,Air,3
 Node,41,ZONE INLET NODE_UNIT3_FRONTROW_MIDDLEFLOOR,Air,3
 Node,42,HPWH ZONE INLET NODE_UNIT3_FRONTROW_MIDDLEFLOOR,Air,3
 Node,43,OA INLET NODE_UNIT3_FRONTROW_MIDDLEFLOOR,Air,3
 Node,44,ZONE EXHAUST NODE_UNIT3_FRONTROW_MIDDLEFLOOR,Air,3
 Node,45,ZONE EXHAUST NODE1_UNIT3_FRONTROW_MIDDLEFLOOR,Air,3
 Node,46,ZONE INLET NODE_UNIT1_BACKROW_MIDDLEFLOOR,Air,3
 Node,47,HPWH ZONE INLET NODE_UNIT1_BACKROW_MIDDLEFLOOR,Air,3
 Node,48,OA INLET NODE_UNIT1_BACKROW_MIDDLEFLOOR,Air,3
 Node,49,ZONE EXHAUST NODE_UNIT1_BACKROW_MIDDLEFLOOR,Air,3
 Node,50,ZONE EXHAUST NODE1_UNIT1_BACKROW_MIDDLEFLOOR,Air,3
 Node,51,ZONE INLET NODE_UNIT2_BACKROW_MIDDLEFLOOR,Air,3
 Node,52,HPWH ZONE INLET NODE_UNIT2_BACKROW_MIDDLEFLOOR,Air,3
 Node,53,OA INLET NODE_UNIT2_BACKROW_MIDDLEFLOOR,Air,3
 Node,54,ZONE EXHAUST NODE_UNIT2_BACKROW_MIDDLEFLOOR,Air,3
 Node,55,ZONE EXHAUST NODE1_UNIT2_BACKROW_MIDDLEFLOOR,Air,3
 Node,56,ZONE INLET NODE_UNIT3_BACKROW_MIDDLEFLOOR,Air,3
 Node,57,HPWH ZONE INLET NODE_UNIT3_BACKROW_MIDDLEFLOOR,Air,3
 Node,58,OA INLET NODE_UNIT3_BACKROW_MIDDLEFLOOR,Air,3
 Node,59,ZONE EXHAUST NODE_UNIT3_BACKROW_MIDDLEFLOOR,Air,3
 Node,60,ZONE EXHAUST NODE1_UNIT3_BACKROW_MIDDLEFLOOR,Air,3
 Node,61,ZONE INLET NODE_UNIT1_FRONTROW_TOPFLOOR,Air,3
 Node,62,HPWH ZONE INLET NODE_UNIT1_FRONTROW_TOPFLOOR,Air,3
 Node,63,OA INLET NODE_UNIT1_FRONTROW_TOPFLOOR,Air,3
 Node,64,ZONE EXHAUST NODE_UNIT1_FRONTROW_TOPFLOOR,Air,3
 Node,65,ZONE EXHAUST NODE1_UNIT1_FRONTROW_TOPFLOOR,Air,3
 Node,66,ZONE INLET NODE_UNIT2_FRONTROW_TOPFLOOR,Air,3
 Node,67,HPWH ZONE INLET NODE_UNIT2_FRONTROW_TOPFLOOR,Air,3
 Node,68,OA INLET NODE_UNIT2_FRONTROW_TOPFLOOR,Air,3
 Node,69,ZONE EXHAUST NODE_UNIT2_FRONTROW_TOPFLOOR,Air,3
 Node,70,ZONE EXHAUST NODE1_UNIT2_FRONTROW_TOPFLOOR,Air,3
 Node,71,ZONE INLET NODE_UNIT3_FRONTROW_TOPFLOOR,Air,3
 Node,72,HPWH ZONE INLET NODE_UNIT3_FRONTROW_TOPFLOOR,Air,3
 Node,73,OA INLET NODE_UNIT3_FRONTROW_TOPFLOOR,Air,3
 Node,74,ZONE EXHAUST NODE_UNIT3_FRONTROW_TOPFLOOR,Air,3
 Node,75,ZONE EXHAUST NODE1_UNIT3_FRONTROW_TOPFLOOR,Air,3
 Node,76,ZONE INLET NODE_UNIT1_BACKROW_TOPFLOOR,Air,3
 Node,77,HPWH ZONE INLET NODE_UNIT1_BACKROW_TOPFLOOR,Air,3
 Node,78,OA INLET NODE_UNIT1_BACKROW_TOPFLOOR,Air,3
 Node,79,ZONE EXHAUST NODE_UNIT1_BACKROW_TOPFLOOR,Air,3
 Node,80,ZONE EXHAUST NODE1_UNIT1_BACKROW_TOPFLOOR,Air,3
 Node,81,ZONE INLET NODE_UNIT2_BACKROW_TOPFLOOR,Air,3
 Node,82,HPWH ZONE INLET NODE_UNIT2_BACKROW_TOPFLOOR,Air,3
 Node,83,OA INLET NODE_UNIT2_BACKROW_TOPFLOOR,Air,3
 Node,84,ZONE EXHAUST NODE_UNIT2_BACKROW_TOPFLOOR,Air,3
 Node,85,ZONE EXHAUST NODE1_UNIT2_BACKROW_TOPFLOOR,Air,3
 Node,86,ZONE INLET NODE_UNIT3_BACKROW_TOPFLOOR,Air,3
 Node,87,HPWH ZONE INLET NODE_UNIT3_BACKROW_TOPFLOOR,Air,3
 Node,88,OA INLET NODE_UNIT3_BACKROW_TOPFLOOR,Air,3
 Node,89,ZONE EXHAUST NODE_UNIT3_BACKROW_TOPFLOOR,Air,3
 Node,90,ZONE EXHAUST NODE1_UNIT3_BACKROW_TOPFLOOR,Air,3
 Node,91,AIR LOOP INLET NODE_UNIT1_FRONTROW_BOTTOMFLOOR,Air,3
 Node,92,AIR LOOP OUTLET NODE_UNIT1_FRONTROW_BOTTOMFLOOR,Air,3
 Node,93,AIR LOOP INLET NODE_UNIT2_FRONTROW_BOTTOMFLOOR,Air,3
 Node,94,AIR LOOP OUTLET NODE_UNIT2_FRONTROW_BOTTOMFLOOR,Air,3
 Node,95,AIR LOOP INLET NODE_UNIT3_FRONTROW_BOTTOMFLOOR,Air,3
 Node,96,AIR LOOP OUTLET NODE_UNIT3_FRONTROW_BOTTOMFLOOR,Air,3
 Node,97,AIR LOOP INLET NODE_UNIT1_BACKROW_BOTTOMFLOOR,Air,3
 Node,98,AIR LOOP OUTLET NODE_UNIT1_BACKROW_BOTTOMFLOOR,Air,3
 Node,99,AIR LOOP INLET NODE_UNIT2_BACKROW_BOTTOMFLOOR,Air,3
 Node,100,AIR LOOP OUTLET NODE_UNIT2_BACKROW_BOTTOMFLOOR,Air,3
 Node,101,AIR LOOP INLET NODE_UNIT3_BACKROW_BOTTOMFLOOR,Air,3
 Node,102,AIR LOOP OUTLET NODE_UNIT3_BACKROW_BOTTOMFLOOR,Air,3
 Node,103,AIR LOOP INLET NODE_UNIT1_FRONTROW_MIDDLEFLOOR,Air,3
 Node,104,AIR LOOP OUTLET NODE_UNIT1_FRONTROW_MIDDLEFLOOR,Air,3
 Node,105,AIR LOOP INLET NODE_UNIT2_FRONTROW_MIDDLEFLOOR,Air,3
 Node,106,AIR LOOP OUTLET NODE_UNIT2_FRONTROW_MIDDLEFLOOR,Air,3
 Node,107,AIR LOOP INLET NODE_UNIT3_FRONTROW_MIDDLEFLOOR,Air,3
 Node,108,AIR LOOP OUTLET NODE_UNIT3_FRONTROW_MIDDLEFLOOR,Air,3
 Node,109,AIR LOOP INLET NODE_UNIT1_BACKROW_MIDDLEFLOOR,Air,3
 Node,110,AIR LOOP OUTLET NODE_UNIT1_BACKROW_MIDDLEFLOOR,Air,3
 Node,111,AIR LOOP INLET NODE_UNIT2_BACKROW_MIDDLEFLOOR,Air,3
 Node,112,AIR LOOP OUTLET NODE_UNIT2_BACKROW_MIDDLEFLOOR,Air,3
 Node,113,AIR LOOP INLET NODE_UNIT3_BACKROW_MIDDLEFLOOR,Air,3
 Node,114,AIR LOOP OUTLET NODE_UNIT3_BACKROW_MIDDLEFLOOR,Air,3
 Node,115,AIR LOOP INLET NODE_UNIT1_FRONTROW_TOPFLOOR,Air,3
 Node,116,AIR LOOP OUTLET NODE_UNIT1_FRONTROW_TOPFLOOR,Air,3
 Node,117,AIR LOOP INLET NODE_UNIT2_FRONTROW_TOPFLOOR,Air,3
 Node,118,AIR LOOP OUTLET NODE_UNIT2_FRONTROW_TOPFLOOR,Air,3
 Node,119,AIR LOOP INLET NODE_UNIT3_FRONTROW_TOPFLOOR,Air,3
 Node,120,AIR LOOP OUTLET NODE_UNIT3_FRONTROW_TOPFLOOR,Air,3
 Node,121,AIR LOOP INLET NODE_UNIT1_BACKROW_TOPFLOOR,Air,3
 Node,122,AIR LOOP OUTLET NODE_UNIT1_BACKROW_TOPFLOOR,Air,3
 Node,123,AIR LOOP INLET NODE_UNIT2_BACKROW_TOPFLOOR,Air,3
 Node,124,AIR LOOP OUTLET NODE_UNIT2_BACKROW_TOPFLOOR,Air,3
 Node,125,AIR LOOP INLET NODE_UNIT3_BACKROW_TOPFLOOR,Air,3
 Node,126,AIR LOOP OUTLET NODE_UNIT3_BACKROW_TOPFLOOR,Air,3
 Node,127,MAINS INLET NODE_UNIT1_FRONTROW_BOTTOMFLOOR,Water,2
 Node,128,MAINS PRESSURE OUTLET NODE_UNIT1_FRONTROW_BOTTOMFLOOR,Water,1
 Node,129,DHW SUPPLY OUTLET PIPE INLET NODE_UNIT1_FRONTROW_BOTTOMFLOOR,Water,1
 Node,130,DHW SUPPLY OUTLET NODE_UNIT1_FRONTROW_BOTTOMFLOOR,Water,4
 Node,131,DHW DEMAND INLET NODE_UNIT1_FRONTROW_BOTTOMFLOOR,Water,2
 Node,132,DHW DEMAND INLET PIPE OUTLET NODE_UNIT1_FRONTROW_BOTTOMFLOOR,Water,1
 Node,133,WATER SINK INLET NODE_UNIT1_FRONTROW_BOTTOMFLOOR,Water,1
 Node,134,WATER SINK OUTLET NODE_UNIT1_FRONTROW_BOTTOMFLOOR,Water,1
 Node,135,WATER SHOWER INLET NODE_UNIT1_FRONTROW_BOTTOMFLOOR,Water,1
 Node,136,WATER SHOWER OUTLET NODE_UNIT1_FRONTROW_BOTTOMFLOOR,Water,1
 Node,137,WATER CLOTHESWASHER INLET NODE_UNIT1_FRONTROW_BOTTOMFLOOR,Water,1
 Node,138,WATER CLOTHESWASHER OUTLET NODE_UNIT1_FRONTROW_BOTTOMFLOOR,Water,1
 Node,139,WATER DISHWASHER INLET NODE_UNIT1_FRONTROW_BOTTOMFLOOR,Water,1
 Node,140,WATER DISHWASHER OUTLET NODE_UNIT1_FRONTROW_BOTTOMFLOOR,Water,1
 Node,141,WATER BATH INLET NODE_UNIT1_FRONTROW_BOTTOMFLOOR,Water,1
 Node,142,WATER BATH OUTLET NODE_UNIT1_FRONTROW_BOTTOMFLOOR,Water,1
 Node,143,MAINS MAKEUP PIPE INLET NODE_UNIT1_FRONTROW_BOTTOMFLOOR,Water,1
 Node,144,MAINS MAKEUP NODE_UNIT1_FRONTROW_BOTTOMFLOOR,Water,2
 Node,145,WATER HEATER USE INLET NODE_UNIT1_FRONTROW_BOTTOMFLOOR,Water,2
 Node,146,WATER HEATER USE OUTLET NODE_UNIT1_FRONTROW_BOTTOMFLOOR,Water,2
 Node,147,MAINS INLET NODE_UNIT2_FRONTROW_BOTTOMFLOOR,Water,2
 Node,148,MAINS PRESSURE OUTLET NODE_UNIT2_FRONTROW_BOTTOMFLOOR,Water,1
 Node,149,DHW SUPPLY OUTLET PIPE INLET NODE_UNIT2_FRONTROW_BOTTOMFLOOR,Water,1
 Node,150,DHW SUPPLY OUTLET NODE_UNIT2_FRONTROW_BOTTOMFLOOR,Water,4
 Node,151,DHW DEMAND INLET NODE_UNIT2_FRONTROW_BOTTOMFLOOR,Water,2
 Node,152,DHW DEMAND INLET PIPE OUTLET NODE_UNIT2_FRONTROW_BOTTOMFLOOR,Water,1
 Node,153,WATER SINK INLET NODE_UNIT2_FRONTROW_BOTTOMFLOOR,Water,1
 Node,154,WATER SINK OUTLET NODE_UNIT2_FRONTROW_BOTTOMFLOOR,Water,1
 Node,155,WATER SHOWER INLET NODE_UNIT2_FRONTROW_BOTTOMFLOOR,Water,1
 Node,156,WATER SHOWER OUTLET NODE_UNIT2_FRONTROW_BOTTOMFLOOR,Water,1
 Node,157,WATER CLOTHESWASHER INLET NODE_UNIT2_FRONTROW_BOTTOMFLOOR,Water,1
 Node,158,WATER CLOTHESWASHER OUTLET NODE_UNIT2_FRONTROW_BOTTOMFLOOR,Water,1
 Node,159,WATER DISHWASHER INLET NODE_UNIT2_FRONTROW_BOTTOMFLOOR,Water,1
 Node,160,WATER DISHWASHER OUTLET NODE_UNIT2_FRONTROW_BOTTOMFLOOR,Water,1
 Node,161,WATER BATH INLET NODE_UNIT2_FRONTROW_BOTTOMFLOOR,Water,1
 Node,162,WATER BATH OUTLET NODE_UNIT2_FRONTROW_BOTTOMFLOOR,Water,1
 Node,163,MAINS MAKEUP PIPE INLET NODE_UNIT2_FRONTROW_BOTTOMFLOOR,Water,1
 Node,164,MAINS MAKEUP NODE_UNIT2_FRONTROW_BOTTOMFLOOR,Water,2
 Node,165,WATER HEATER USE INLET NODE_UNIT2_FRONTROW_BOTTOMFLOOR,Water,2
 Node,166,WATER HEATER USE OUTLET NODE_UNIT2_FRONTROW_BOTTOMFLOOR,Water,2
 Node,167,MAINS INLET NODE_UNIT3_FRONTROW_BOTTOMFLOOR,Water,2
 Node,168,MAINS PRESSURE OUTLET NODE_UNIT3_FRONTROW_BOTTOMFLOOR,Water,1
 Node,169,DHW SUPPLY OUTLET PIPE INLET NODE_UNIT3_FRONTROW_BOTTOMFLOOR,Water,1
 Node,170,DHW SUPPLY OUTLET NODE_UNIT3_FRONTROW_BOTTOMFLOOR,Water,4
 Node,171,DHW DEMAND INLET NODE_UNIT3_FRONTROW_BOTTOMFLOOR,Water,2
 Node,172,DHW DEMAND INLET PIPE OUTLET NODE_UNIT3_FRONTROW_BOTTOMFLOOR,Water,1
 Node,173,WATER SINK INLET NODE_UNIT3_FRONTROW_BOTTOMFLOOR,Water,1
 Node,174,WATER SINK OUTLET NODE_UNIT3_FRONTROW_BOTTOMFLOOR,Water,1
 Node,175,WATER SHOWER INLET NODE_UNIT3_FRONTROW_BOTTOMFLOOR,Water,1
 Node,176,WATER SHOWER OUTLET NODE_UNIT3_FRONTROW_BOTTOMFLOOR,Water,1
 Node,177,WATER CLOTHESWASHER INLET NODE_UNIT3_FRONTROW_BOTTOMFLOOR,Water,1
 Node,178,WATER CLOTHESWASHER OUTLET NODE_UNIT3_FRONTROW_BOTTOMFLOOR,Water,1
 Node,179,WATER DISHWASHER INLET NODE_UNIT3_FRONTROW_BOTTOMFLOOR,Water,1
 Node,180,WATER DISHWASHER OUTLET NODE_UNIT3_FRONTROW_BOTTOMFLOOR,Water,1
 Node,181,WATER BATH INLET NODE_UNIT3_FRONTROW_BOTTOMFLOOR,Water,1
 Node,182,WATER BATH OUTLET NODE_UNIT3_FRONTROW_BOTTOMFLOOR,Water,1
 Node,183,MAINS MAKEUP PIPE INLET NODE_UNIT3_FRONTROW_BOTTOMFLOOR,Water,1
 Node,184,MAINS MAKEUP NODE_UNIT3_FRONTROW_BOTTOMFLOOR,Water,2
 Node,185,WATER HEATER USE INLET NODE_UNIT3_FRONTROW_BOTTOMFLOOR,Water,2
 Node,186,WATER HEATER USE OUTLET NODE_UNIT3_FRONTROW_BOTTOMFLOOR,Water,2
 Node,187,MAINS INLET NODE_UNIT1_BACKROW_BOTTOMFLOOR,Water,2
 Node,188,MAINS PRESSURE OUTLET NODE_UNIT1_BACKROW_BOTTOMFLOOR,Water,1
 Node,189,DHW SUPPLY OUTLET PIPE INLET NODE_UNIT1_BACKROW_BOTTOMFLOOR,Water,1
 Node,190,DHW SUPPLY OUTLET NODE_UNIT1_BACKROW_BOTTOMFLOOR,Water,4
 Node,191,DHW DEMAND INLET NODE_UNIT1_BACKROW_BOTTOMFLOOR,Water,2
 Node,192,DHW DEMAND INLET PIPE OUTLET NODE_UNIT1_BACKROW_BOTTOMFLOOR,Water,1
 Node,193,WATER SINK INLET NODE_UNIT1_BACKROW_BOTTOMFLOOR,Water,1
 Node,194,WATER SINK OUTLET NODE_UNIT1_BACKROW_BOTTOMFLOOR,Water,1
 Node,195,WATER SHOWER INLET NODE_UNIT1_BACKROW_BOTTOMFLOOR,Water,1
 Node,196,WATER SHOWER OUTLET NODE_UNIT1_BACKROW_BOTTOMFLOOR,Water,1
 Node,197,WATER CLOTHESWASHER INLET NODE_UNIT1_BACKROW_BOTTOMFLOOR,Water,1
 Node,198,WATER CLOTHESWASHER OUTLET NODE_UNIT1_BACKROW_BOTTOMFLOOR,Water,1
 Node,199,WATER DISHWASHER INLET NODE_UNIT1_BACKROW_BOTTOMFLOOR,Water,1
 Node,200,WATER DISHWASHER OUTLET NODE_UNIT1_BACKROW_BOTTOMFLOOR,Water,1
 Node,201,WATER BATH INLET NODE_UNIT1_BACKROW_BOTTOMFLOOR,Water,1
 Node,202,WATER BATH OUTLET NODE_UNIT1_BACKROW_BOTTOMFLOOR,Water,1
 Node,203,MAINS MAKEUP PIPE INLET NODE_UNIT1_BACKROW_BOTTOMFLOOR,Water,1
 Node,204,MAINS MAKEUP NODE_UNIT1_BACKROW_BOTTOMFLOOR,Water,2
 Node,205,WATER HEATER USE INLET NODE_UNIT1_BACKROW_BOTTOMFLOOR,Water,2
 Node,206,WATER HEATER USE OUTLET NODE_UNIT1_BACKROW_BOTTOMFLOOR,Water,2
 Node,207,MAINS INLET NODE_UNIT2_BACKROW_BOTTOMFLOOR,Water,2
 Node,208,MAINS PRESSURE OUTLET NODE_UNIT2_BACKROW_BOTTOMFLOOR,Water,1
 Node,209,DHW SUPPLY OUTLET PIPE INLET NODE_UNIT2_BACKROW_BOTTOMFLOOR,Water,1
 Node,210,DHW SUPPLY OUTLET NODE_UNIT2_BACKROW_BOTTOMFLOOR,Water,4
 Node,211,DHW DEMAND INLET NODE_UNIT2_BACKROW_BOTTOMFLOOR,Water,2
 Node,212,DHW DEMAND INLET PIPE OUTLET NODE_UNIT2_BACKROW_BOTTOMFLOOR,Water,1
 Node,213,WATER SINK INLET NODE_UNIT2_BACKROW_BOTTOMFLOOR,Water,1
 Node,214,WATER SINK OUTLET NODE_UNIT2_BACKROW_BOTTOMFLOOR,Water,1
 Node,215,WATER SHOWER INLET NODE_UNIT2_BACKROW_BOTTOMFLOOR,Water,1
 Node,216,WATER SHOWER OUTLET NODE_UNIT2_BACKROW_BOTTOMFLOOR,Water,1
 Node,217,WATER CLOTHESWASHER INLET NODE_UNIT2_BACKROW_BOTTOMFLOOR,Water,1
 Node,218,WATER CLOTHESWASHER OUTLET NODE_UNIT2_BACKROW_BOTTOMFLOOR,Water,1
 Node,219,WATER DISHWASHER INLET NODE_UNIT2_BACKROW_BOTTOMFLOOR,Water,1
 Node,220,WATER DISHWASHER OUTLET NODE_UNIT2_BACKROW_BOTTOMFLOOR,Water,1
 Node,221,WATER BATH INLET NODE_UNIT2_BACKROW_BOTTOMFLOOR,Water,1
 Node,222,WATER BATH OUTLET NODE_UNIT2_BACKROW_BOTTOMFLOOR,Water,1
 Node,223,MAINS MAKEUP PIPE INLET NODE_UNIT2_BACKROW_BOTTOMFLOOR,Water,1
 Node,224,MAINS MAKEUP NODE_UNIT2_BACKROW_BOTTOMFLOOR,Water,2
 Node,225,WATER HEATER USE INLET NODE_UNIT2_BACKROW_BOTTOMFLOOR,Water,2
 Node,226,WATER HEATER USE OUTLET NODE_UNIT2_BACKROW_BOTTOMFLOOR,Water,2
 Node,227,MAINS INLET NODE_UNIT3_BACKROW_BOTTOMFLOOR,Water,2
 Node,228,MAINS PRESSURE OUTLET NODE_UNIT3_BACKROW_BOTTOMFLOOR,Water,1
 Node,229,DHW SUPPLY OUTLET PIPE INLET NODE_UNIT3_BACKROW_BOTTOMFLOOR,Water,1
 Node,230,DHW SUPPLY OUTLET NODE_UNIT3_BACKROW_BOTTOMFLOOR,Water,4
 Node,231,DHW DEMAND INLET NODE_UNIT3_BACKROW_BOTTOMFLOOR,Water,2
 Node,232,DHW DEMAND INLET PIPE OUTLET NODE_UNIT3_BACKROW_BOTTOMFLOOR,Water,1
 Node,233,WATER SINK INLET NODE_UNIT3_BACKROW_BOTTOMFLOOR,Water,1
 Node,234,WATER SINK OUTLET NODE_UNIT3_BACKROW_BOTTOMFLOOR,Water,1
 Node,235,WATER SHOWER INLET NODE_UNIT3_BACKROW_BOTTOMFLOOR,Water,1
 Node,236,WATER SHOWER OUTLET NODE_UNIT3_BACKROW_BOTTOMFLOOR,Water,1
 Node,237,WATER CLOTHESWASHER INLET NODE_UNIT3_BACKROW_BOTTOMFLOOR,Water,1
 Node,238,WATER CLOTHESWASHER OUTLET NODE_UNIT3_BACKROW_BOTTOMFLOOR,Water,1
 Node,239,WATER DISHWASHER INLET NODE_UNIT3_BACKROW_BOTTOMFLOOR,Water,1
 Node,240,WATER DISHWASHER OUTLET NODE_UNIT3_BACKROW_BOTTOMFLOOR,Water,1
 Node,241,WATER BATH INLET NODE_UNIT3_BACKROW_BOTTOMFLOOR,Water,1
 Node,242,WATER BATH OUTLET NODE_UNIT3_BACKROW_BOTTOMFLOOR,Water,1
 Node,243,MAINS MAKEUP PIPE INLET NODE_UNIT3_BACKROW_BOTTOMFLOOR,Water,1
 Node,244,MAINS MAKEUP NODE_UNIT3_BACKROW_BOTTOMFLOOR,Water,2
 Node,245,WATER HEATER USE INLET NODE_UNIT3_BACKROW_BOTTOMFLOOR,Water,2
 Node,246,WATER HEATER USE OUTLET NODE_UNIT3_BACKROW_BOTTOMFLOOR,Water,2
 Node,247,MAINS INLET NODE_UNIT1_FRONTROW_MIDDLEFLOOR,Water,2
 Node,248,MAINS PRESSURE OUTLET NODE_UNIT1_FRONTROW_MIDDLEFLOOR,Water,1
 Node,249,DHW SUPPLY OUTLET PIPE INLET NODE_UNIT1_FRONTROW_MIDDLEFLOOR,Water,1
 Node,250,DHW SUPPLY OUTLET NODE_UNIT1_FRONTROW_MIDDLEFLOOR,Water,4
 Node,251,DHW DEMAND INLET NODE_UNIT1_FRONTROW_MIDDLEFLOOR,Water,2
 Node,252,DHW DEMAND INLET PIPE OUTLET NODE_UNIT1_FRONTROW_MIDDLEFLOOR,Water,1
 Node,253,WATER SINK INLET NODE_UNIT1_FRONTROW_MIDDLEFLOOR,Water,1
 Node,254,WATER SINK OUTLET NODE_UNIT1_FRONTROW_MIDDLEFLOOR,Water,1
 Node,255,WATER SHOWER INLET NODE_UNIT1_FRONTROW_MIDDLEFLOOR,Water,1
 Node,256,WATER SHOWER OUTLET NODE_UNIT1_FRONTROW_MIDDLEFLOOR,Water,1
 Node,257,WATER CLOTHESWASHER INLET NODE_UNIT1_FRONTROW_MIDDLEFLOOR,Water,1
 Node,258,WATER CLOTHESWASHER OUTLET NODE_UNIT1_FRONTROW_MIDDLEFLOOR,Water,1
 Node,259,WATER DISHWASHER INLET NODE_UNIT1_FRONTROW_MIDDLEFLOOR,Water,1
 Node,260,WATER DISHWASHER OUTLET NODE_UNIT1_FRONTROW_MIDDLEFLOOR,Water,1
 Node,261,WATER BATH INLET NODE_UNIT1_FRONTROW_MIDDLEFLOOR,Water,1
 Node,262,WATER BATH OUTLET NODE_UNIT1_FRONTROW_MIDDLEFLOOR,Water,1
 Node,263,MAINS MAKEUP PIPE INLET NODE_UNIT1_FRONTROW_MIDDLEFLOOR,Water,1
 Node,264,MAINS MAKEUP NODE_UNIT1_FRONTROW_MIDDLEFLOOR,Water,2
 Node,265,WATER HEATER USE INLET NODE_UNIT1_FRONTROW_MIDDLEFLOOR,Water,2
 Node,266,WATER HEATER USE OUTLET NODE_UNIT1_FRONTROW_MIDDLEFLOOR,Water,2
 Node,267,MAINS INLET NODE_UNIT2_FRONTROW_MIDDLEFLOOR,Water,2
 Node,268,MAINS PRESSURE OUTLET NODE_UNIT2_FRONTROW_MIDDLEFLOOR,Water,1
 Node,269,DHW SUPPLY OUTLET PIPE INLET NODE_UNIT2_FRONTROW_MIDDLEFLOOR,Water,1
 Node,270,DHW SUPPLY OUTLET NODE_UNIT2_FRONTROW_MIDDLEFLOOR,Water,4
 Node,271,DHW DEMAND INLET NODE_UNIT2_FRONTROW_MIDDLEFLOOR,Water,2
 Node,272,DHW DEMAND INLET PIPE OUTLET NODE_UNIT2_FRONTROW_MIDDLEFLOOR,Water,1
 Node,273,WATER SINK INLET NODE_UNIT2_FRONTROW_MIDDLEFLOOR,Water,1
 Node,274,WATER SINK OUTLET NODE_UNIT2_FRONTROW_MIDDLEFLOOR,Water,1
 Node,275,WATER SHOWER INLET NODE_UNIT2_FRONTROW_MIDDLEFLOOR,Water,1
 Node,276,WATER SHOWER OUTLET NODE_UNIT2_FRONTROW_MIDDLEFLOOR,Water,1
 Node,277,WATER CLOTHESWASHER INLET NODE_UNIT2_FRONTROW_MIDDLEFLOOR,Water,1
 Node,278,WATER CLOTHESWASHER OUTLET NODE_UNIT2_FRONTROW_MIDDLEFLOOR,Water,1
 Node,279,WATER DISHWASHER INLET NODE_UNIT2_FRONTROW_MIDDLEFLOOR,Water,1
 Node,280,WATER DISHWASHER OUTLET NODE_UNIT2_FRONTROW_MIDDLEFLOOR,Water,1
 Node,281,WATER BATH INLET NODE_UNIT2_FRONTROW_MIDDLEFLOOR,Water,1
 Node,282,WATER BATH OUTLET NODE_UNIT2_FRONTROW_MIDDLEFLOOR,Water,1
 Node,283,MAINS MAKEUP PIPE INLET NODE_UNIT2_FRONTROW_MIDDLEFLOOR,Water,1
 Node,284,MAINS MAKEUP NODE_UNIT2_FRONTROW_MIDDLEFLOOR,Water,2
 Node,285,WATER HEATER USE INLET NODE_UNIT2_FRONTROW_MIDDLEFLOOR,Water,2
 Node,286,WATER HEATER USE OUTLET NODE_UNIT2_FRONTROW_MIDDLEFLOOR,Water,2
 Node,287,MAINS INLET NODE_UNIT3_FRONTROW_MIDDLEFLOOR,Water,2
 Node,288,MAINS PRESSURE OUTLET NODE_UNIT3_FRONTROW_MIDDLEFLOOR,Water,1
 Node,289,DHW SUPPLY OUTLET PIPE INLET NODE_UNIT3_FRONTROW_MIDDLEFLOOR,Water,1
 Node,290,DHW SUPPLY OUTLET NODE_UNIT3_FRONTROW_MIDDLEFLOOR,Water,4
 Node,291,DHW DEMAND INLET NODE_UNIT3_FRONTROW_MIDDLEFLOOR,Water,2
 Node,292,DHW DEMAND INLET PIPE OUTLET NODE_UNIT3_FRONTROW_MIDDLEFLOOR,Water,1
 Node,293,WATER SINK INLET NODE_UNIT3_FRONTROW_MIDDLEFLOOR,Water,1
 Node,294,WATER SINK OUTLET NODE_UNIT3_FRONTROW_MIDDLEFLOOR,Water,1
 Node,295,WATER SHOWER INLET NODE_UNIT3_FRONTROW_MIDDLEFLOOR,Water,1
 Node,296,WATER SHOWER OUTLET NODE_UNIT3_FRONTROW_MIDDLEFLOOR,Water,1
 Node,297,WATER CLOTHESWASHER INLET NODE_UNIT3_FRONTROW_MIDDLEFLOOR,Water,1
 Node,298,WATER CLOTHESWASHER OUTLET NODE_UNIT3_FRONTROW_MIDDLEFLOOR,Water,1
 Node,299,WATER DISHWASHER INLET NODE_UNIT3_FRONTROW_MIDDLEFLOOR,Water,1
 Node,300,WATER DISHWASHER OUTLET NODE_UNIT3_FRONTROW_MIDDLEFLOOR,Water,1
 Node,301,WATER BATH INLET NODE_UNIT3_FRONTROW_MIDDLEFLOOR,Water,1
 Node,302,WATER BATH OUTLET NODE_UNIT3_FRONTROW_MIDDLEFLOOR,Water,1
 Node,303,MAINS MAKEUP PIPE INLET NODE_UNIT3_FRONTROW_MIDDLEFLOOR,Water,1
 Node,304,MAINS MAKEUP NODE_UNIT3_FRONTROW_MIDDLEFLOOR,Water,2
 Node,305,WATER HEATER USE INLET NODE_UNIT3_FRONTROW_MIDDLEFLOOR,Water,2
 Node,306,WATER HEATER USE OUTLET NODE_UNIT3_FRONTROW_MIDDLEFLOOR,Water,2
 Node,307,MAINS INLET NODE_UNIT1_BACKROW_MIDDLEFLOOR,Water,2
 Node,308,MAINS PRESSURE OUTLET NODE_UNIT1_BACKROW_MIDDLEFLOOR,Water,1
 Node,309,DHW SUPPLY OUTLET PIPE INLET NODE_UNIT1_BACKROW_MIDDLEFLOOR,Water,1
 Node,310,DHW SUPPLY OUTLET NODE_UNIT1_BACKROW_MIDDLEFLOOR,Water,4
 Node,311,DHW DEMAND INLET NODE_UNIT1_BACKROW_MIDDLEFLOOR,Water,2
 Node,312,DHW DEMAND INLET PIPE OUTLET NODE_UNIT1_BACKROW_MIDDLEFLOOR,Water,1
 Node,313,WATER SINK INLET NODE_UNIT1_BACKROW_MIDDLEFLOOR,Water,1
 Node,314,WATER SINK OUTLET NODE_UNIT1_BACKROW_MIDDLEFLOOR,Water,1
 Node,315,WATER SHOWER INLET NODE_UNIT1_BACKROW_MIDDLEFLOOR,Water,1
 Node,316,WATER SHOWER OUTLET NODE_UNIT1_BACKROW_MIDDLEFLOOR,Water,1
 Node,317,WATER CLOTHESWASHER INLET NODE_UNIT1_BACKROW_MIDDLEFLOOR,Water,1
 Node,318,WATER CLOTHESWASHER OUTLET NODE_UNIT1_BACKROW_MIDDLEFLOOR,Water,1
 Node,319,WATER DISHWASHER INLET NODE_UNIT1_BACKROW_MIDDLEFLOOR,Water,1
 Node,320,WATER DISHWASHER OUTLET NODE_UNIT1_BACKROW_MIDDLEFLOOR,Water,1
 Node,321,WATER BATH INLET NODE_UNIT1_BACKROW_MIDDLEFLOOR,Water,1
 Node,322,WATER BATH OUTLET NODE_UNIT1_BACKROW_MIDDLEFLOOR,Water,1
 Node,323,MAINS MAKEUP PIPE INLET NODE_UNIT1_BACKROW_MIDDLEFLOOR,Water,1
 Node,324,MAINS MAKEUP NODE_UNIT1_BACKROW_MIDDLEFLOOR,Water,2
 Node,325,WATER HEATER USE INLET NODE_UNIT1_BACKROW_MIDDLEFLOOR,Water,2
 Node,326,WATER HEATER USE OUTLET NODE_UNIT1_BACKROW_MIDDLEFLOOR,Water,2
 Node,327,MAINS INLET NODE_UNIT2_BACKROW_MIDDLEFLOOR,Water,2
 Node,328,MAINS PRESSURE OUTLET NODE_UNIT2_BACKROW_MIDDLEFLOOR,Water,1
 Node,329,DHW SUPPLY OUTLET PIPE INLET NODE_UNIT2_BACKROW_MIDDLEFLOOR,Water,1
 Node,330,DHW SUPPLY OUTLET NODE_UNIT2_BACKROW_MIDDLEFLOOR,Water,4
 Node,331,DHW DEMAND INLET NODE_UNIT2_BACKROW_MIDDLEFLOOR,Water,2
 Node,332,DHW DEMAND INLET PIPE OUTLET NODE_UNIT2_BACKROW_MIDDLEFLOOR,Water,1
 Node,333,WATER SINK INLET NODE_UNIT2_BACKROW_MIDDLEFLOOR,Water,1
 Node,334,WATER SINK OUTLET NODE_UNIT2_BACKROW_MIDDLEFLOOR,Water,1
 Node,335,WATER SHOWER INLET NODE_UNIT2_BACKROW_MIDDLEFLOOR,Water,1
 Node,336,WATER SHOWER OUTLET NODE_UNIT2_BACKROW_MIDDLEFLOOR,Water,1
 Node,337,WATER CLOTHESWASHER INLET NODE_UNIT2_BACKROW_MIDDLEFLOOR,Water,1
 Node,338,WATER CLOTHESWASHER OUTLET NODE_UNIT2_BACKROW_MIDDLEFLOOR,Water,1
 Node,339,WATER DISHWASHER INLET NODE_UNIT2_BACKROW_MIDDLEFLOOR,Water,1
 Node,340,WATER DISHWASHER OUTLET NODE_UNIT2_BACKROW_MIDDLEFLOOR,Water,1
 Node,341,WATER BATH INLET NODE_UNIT2_BACKROW_MIDDLEFLOOR,Water,1
 Node,342,WATER BATH OUTLET NODE_UNIT2_BACKROW_MIDDLEFLOOR,Water,1
 Node,343,MAINS MAKEUP PIPE INLET NODE_UNIT2_BACKROW_MIDDLEFLOOR,Water,1
 Node,344,MAINS MAKEUP NODE_UNIT2_BACKROW_MIDDLEFLOOR,Water,2
 Node,345,WATER HEATER USE INLET NODE_UNIT2_BACKROW_MIDDLEFLOOR,Water,2
 Node,346,WATER HEATER USE OUTLET NODE_UNIT2_BACKROW_MIDDLEFLOOR,Water,2
 Node,347,MAINS INLET NODE_UNIT3_BACKROW_MIDDLEFLOOR,Water,2
 Node,348,MAINS PRESSURE OUTLET NODE_UNIT3_BACKROW_MIDDLEFLOOR,Water,1
 Node,349,DHW SUPPLY OUTLET PIPE INLET NODE_UNIT3_BACKROW_MIDDLEFLOOR,Water,1
 Node,350,DHW SUPPLY OUTLET NODE_UNIT3_BACKROW_MIDDLEFLOOR,Water,4
 Node,351,DHW DEMAND INLET NODE_UNIT3_BACKROW_MIDDLEFLOOR,Water,2
 Node,352,DHW DEMAND INLET PIPE OUTLET NODE_UNIT3_BACKROW_MIDDLEFLOOR,Water,1
 Node,353,WATER SINK INLET NODE_UNIT3_BACKROW_MIDDLEFLOOR,Water,1
 Node,354,WATER SINK OUTLET NODE_UNIT3_BACKROW_MIDDLEFLOOR,Water,1
 Node,355,WATER SHOWER INLET NODE_UNIT3_BACKROW_MIDDLEFLOOR,Water,1
 Node,356,WATER SHOWER OUTLET NODE_UNIT3_BACKROW_MIDDLEFLOOR,Water,1
 Node,357,WATER CLOTHESWASHER INLET NODE_UNIT3_BACKROW_MIDDLEFLOOR,Water,1
 Node,358,WATER CLOTHESWASHER OUTLET NODE_UNIT3_BACKROW_MIDDLEFLOOR,Water,1
 Node,359,WATER DISHWASHER INLET NODE_UNIT3_BACKROW_MIDDLEFLOOR,Water,1
 Node,360,WATER DISHWASHER OUTLET NODE_UNIT3_BACKROW_MIDDLEFLOOR,Water,1
 Node,361,WATER BATH INLET NODE_UNIT3_BACKROW_MIDDLEFLOOR,Water,1
 Node,362,WATER BATH OUTLET NODE_UNIT3_BACKROW_MIDDLEFLOOR,Water,1
 Node,363,MAINS MAKEUP PIPE INLET NODE_UNIT3_BACKROW_MIDDLEFLOOR,Water,1
 Node,364,MAINS MAKEUP NODE_UNIT3_BACKROW_MIDDLEFLOOR,Water,2
 Node,365,WATER HEATER USE INLET NODE_UNIT3_BACKROW_MIDDLEFLOOR,Water,2
 Node,366,WATER HEATER USE OUTLET NODE_UNIT3_BACKROW_MIDDLEFLOOR,Water,2
 Node,367,MAINS INLET NODE_UNIT1_FRONTROW_TOPFLOOR,Water,2
 Node,368,MAINS PRESSURE OUTLET NODE_UNIT1_FRONTROW_TOPFLOOR,Water,1
 Node,369,DHW SUPPLY OUTLET PIPE INLET NODE_UNIT1_FRONTROW_TOPFLOOR,Water,1
 Node,370,DHW SUPPLY OUTLET NODE_UNIT1_FRONTROW_TOPFLOOR,Water,4
 Node,371,DHW DEMAND INLET NODE_UNIT1_FRONTROW_TOPFLOOR,Water,2
 Node,372,DHW DEMAND INLET PIPE OUTLET NODE_UNIT1_FRONTROW_TOPFLOOR,Water,1
 Node,373,WATER SINK INLET NODE_UNIT1_FRONTROW_TOPFLOOR,Water,1
 Node,374,WATER SINK OUTLET NODE_UNIT1_FRONTROW_TOPFLOOR,Water,1
 Node,375,WATER SHOWER INLET NODE_UNIT1_FRONTROW_TOPFLOOR,Water,1
 Node,376,WATER SHOWER OUTLET NODE_UNIT1_FRONTROW_TOPFLOOR,Water,1
 Node,377,WATER CLOTHESWASHER INLET NODE_UNIT1_FRONTROW_TOPFLOOR,Water,1
 Node,378,WATER CLOTHESWASHER OUTLET NODE_UNIT1_FRONTROW_TOPFLOOR,Water,1
 Node,379,WATER DISHWASHER INLET NODE_UNIT1_FRONTROW_TOPFLOOR,Water,1
 Node,380,WATER DISHWASHER OUTLET NODE_UNIT1_FRONTROW_TOPFLOOR,Water,1
 Node,381,WATER BATH INLET NODE_UNIT1_FRONTROW_TOPFLOOR,Water,1
 Node,382,WATER BATH OUTLET NODE_UNIT1_FRONTROW_TOPFLOOR,Water,1
 Node,383,MAINS MAKEUP PIPE INLET NODE_UNIT1_FRONTROW_TOPFLOOR,Water,1
 Node,384,MAINS MAKEUP NODE_UNIT1_FRONTROW_TOPFLOOR,Water,2
 Node,385,WATER HEATER USE INLET NODE_UNIT1_FRONTROW_TOPFLOOR,Water,2
 Node,386,WATER HEATER USE OUTLET NODE_UNIT1_FRONTROW_TOPFLOOR,Water,2
 Node,387,MAINS INLET NODE_UNIT2_FRONTROW_TOPFLOOR,Water,2
 Node,388,MAINS PRESSURE OUTLET NODE_UNIT2_FRONTROW_TOPFLOOR,Water,1
 Node,389,DHW SUPPLY OUTLET PIPE INLET NODE_UNIT2_FRONTROW_TOPFLOOR,Water,1
 Node,390,DHW SUPPLY OUTLET NODE_UNIT2_FRONTROW_TOPFLOOR,Water,4
 Node,391,DHW DEMAND INLET NODE_UNIT2_FRONTROW_TOPFLOOR,Water,2
 Node,392,DHW DEMAND INLET PIPE OUTLET NODE_UNIT2_FRONTROW_TOPFLOOR,Water,1
 Node,393,WATER SINK INLET NODE_UNIT2_FRONTROW_TOPFLOOR,Water,1
 Node,394,WATER SINK OUTLET NODE_UNIT2_FRONTROW_TOPFLOOR,Water,1
 Node,395,WATER SHOWER INLET NODE_UNIT2_FRONTROW_TOPFLOOR,Water,1
 Node,396,WATER SHOWER OUTLET NODE_UNIT2_FRONTROW_TOPFLOOR,Water,1
 Node,397,WATER CLOTHESWASHER INLET NODE_UNIT2_FRONTROW_TOPFLOOR,Water,1
 Node,398,WATER CLOTHESWASHER OUTLET NODE_UNIT2_FRONTROW_TOPFLOOR,Water,1
 Node,399,WATER DISHWASHER INLET NODE_UNIT2_FRONTROW_TOPFLOOR,Water,1
 Node,400,WATER DISHWASHER OUTLET NODE_UNIT2_FRONTROW_TOPFLOOR,Water,1
 Node,401,WATER BATH INLET NODE_UNIT2_FRONTROW_TOPFLOOR,Water,1
 Node,402,WATER BATH OUTLET NODE_UNIT2_FRONTROW_TOPFLOOR,Water,1
 Node,403,MAINS MAKEUP PIPE INLET NODE_UNIT2_FRONTROW_TOPFLOOR,Water,1
 Node,404,MAINS MAKEUP NODE_UNIT2_FRONTROW_TOPFLOOR,Water,2
 Node,405,WATER HEATER USE INLET NODE_UNIT2_FRONTROW_TOPFLOOR,Water,2
 Node,406,WATER HEATER USE OUTLET NODE_UNIT2_FRONTROW_TOPFLOOR,Water,2
 Node,407,MAINS INLET NODE_UNIT3_FRONTROW_TOPFLOOR,Water,2
 Node,408,MAINS PRESSURE OUTLET NODE_UNIT3_FRONTROW_TOPFLOOR,Water,1
 Node,409,DHW SUPPLY OUTLET PIPE INLET NODE_UNIT3_FRONTROW_TOPFLOOR,Water,1
 Node,410,DHW SUPPLY OUTLET NODE_UNIT3_FRONTROW_TOPFLOOR,Water,4
 Node,411,DHW DEMAND INLET NODE_UNIT3_FRONTROW_TOPFLOOR,Water,2
 Node,412,DHW DEMAND INLET PIPE OUTLET NODE_UNIT3_FRONTROW_TOPFLOOR,Water,1
 Node,413,WATER SINK INLET NODE_UNIT3_FRONTROW_TOPFLOOR,Water,1
 Node,414,WATER SINK OUTLET NODE_UNIT3_FRONTROW_TOPFLOOR,Water,1
 Node,415,WATER SHOWER INLET NODE_UNIT3_FRONTROW_TOPFLOOR,Water,1
 Node,416,WATER SHOWER OUTLET NODE_UNIT3_FRONTROW_TOPFLOOR,Water,1
 Node,417,WATER CLOTHESWASHER INLET NODE_UNIT3_FRONTROW_TOPFLOOR,Water,1
 Node,418,WATER CLOTHESWASHER OUTLET NODE_UNIT3_FRONTROW_TOPFLOOR,Water,1
 Node,419,WATER DISHWASHER INLET NODE_UNIT3_FRONTROW_TOPFLOOR,Water,1
 Node,420,WATER DISHWASHER OUTLET NODE_UNIT3_FRONTROW_TOPFLOOR,Water,1
 Node,421,WATER BATH INLET NODE_UNIT3_FRONTROW_TOPFLOOR,Water,1
 Node,422,WATER BATH OUTLET NODE_UNIT3_FRONTROW_TOPFLOOR,Water,1
 Node,423,MAINS MAKEUP PIPE INLET NODE_UNIT3_FRONTROW_TOPFLOOR,Water,1
 Node,424,MAINS MAKEUP NODE_UNIT3_FRONTROW_TOPFLOOR,Water,2
 Node,425,WATER HEATER USE INLET NODE_UNIT3_FRONTROW_TOPFLOOR,Water,2
 Node,426,WATER HEATER USE OUTLET NODE_UNIT3_FRONTROW_TOPFLOOR,Water,2
 Node,427,MAINS INLET NODE_UNIT1_BACKROW_TOPFLOOR,Water,2
 Node,428,MAINS PRESSURE OUTLET NODE_UNIT1_BACKROW_TOPFLOOR,Water,1
 Node,429,DHW SUPPLY OUTLET PIPE INLET NODE_UNIT1_BACKROW_TOPFLOOR,Water,1
 Node,430,DHW SUPPLY OUTLET NODE_UNIT1_BACKROW_TOPFLOOR,Water,4
 Node,431,DHW DEMAND INLET NODE_UNIT1_BACKROW_TOPFLOOR,Water,2
 Node,432,DHW DEMAND INLET PIPE OUTLET NODE_UNIT1_BACKROW_TOPFLOOR,Water,1
 Node,433,WATER SINK INLET NODE_UNIT1_BACKROW_TOPFLOOR,Water,1
 Node,434,WATER SINK OUTLET NODE_UNIT1_BACKROW_TOPFLOOR,Water,1
 Node,435,WATER SHOWER INLET NODE_UNIT1_BACKROW_TOPFLOOR,Water,1
 Node,436,WATER SHOWER OUTLET NODE_UNIT1_BACKROW_TOPFLOOR,Water,1
 Node,437,WATER CLOTHESWASHER INLET NODE_UNIT1_BACKROW_TOPFLOOR,Water,1
 Node,438,WATER CLOTHESWASHER OUTLET NODE_UNIT1_BACKROW_TOPFLOOR,Water,1
 Node,439,WATER DISHWASHER INLET NODE_UNIT1_BACKROW_TOPFLOOR,Water,1
 Node,440,WATER DISHWASHER OUTLET NODE_UNIT1_BACKROW_TOPFLOOR,Water,1
 Node,441,WATER BATH INLET NODE_UNIT1_BACKROW_TOPFLOOR,Water,1
 Node,442,WATER BATH OUTLET NODE_UNIT1_BACKROW_TOPFLOOR,Water,1
 Node,443,MAINS MAKEUP PIPE INLET NODE_UNIT1_BACKROW_TOPFLOOR,Water,1
 Node,444,MAINS MAKEUP NODE_UNIT1_BACKROW_TOPFLOOR,Water,2
 Node,445,WATER HEATER USE INLET NODE_UNIT1_BACKROW_TOPFLOOR,Water,2
 Node,446,WATER HEATER USE OUTLET NODE_UNIT1_BACKROW_TOPFLOOR,Water,2
 Node,447,MAINS INLET NODE_UNIT2_BACKROW_TOPFLOOR,Water,2
 Node,448,MAINS PRESSURE OUTLET NODE_UNIT2_BACKROW_TOPFLOOR,Water,1
 Node,449,DHW SUPPLY OUTLET PIPE INLET NODE_UNIT2_BACKROW_TOPFLOOR,Water,1
 Node,450,DHW SUPPLY OUTLET NODE_UNIT2_BACKROW_TOPFLOOR,Water,4
 Node,451,DHW DEMAND INLET NODE_UNIT2_BACKROW_TOPFLOOR,Water,2
 Node,452,DHW DEMAND INLET PIPE OUTLET NODE_UNIT2_BACKROW_TOPFLOOR,Water,1
 Node,453,WATER SINK INLET NODE_UNIT2_BACKROW_TOPFLOOR,Water,1
 Node,454,WATER SINK OUTLET NODE_UNIT2_BACKROW_TOPFLOOR,Water,1
 Node,455,WATER SHOWER INLET NODE_UNIT2_BACKROW_TOPFLOOR,Water,1
 Node,456,WATER SHOWER OUTLET NODE_UNIT2_BACKROW_TOPFLOOR,Water,1
 Node,457,WATER CLOTHESWASHER INLET NODE_UNIT2_BACKROW_TOPFLOOR,Water,1
 Node,458,WATER CLOTHESWASHER OUTLET NODE_UNIT2_BACKROW_TOPFLOOR,Water,1
 Node,459,WATER DISHWASHER INLET NODE_UNIT2_BACKROW_TOPFLOOR,Water,1
 Node,460,WATER DISHWASHER OUTLET NODE_UNIT2_BACKROW_TOPFLOOR,Water,1
 Node,461,WATER BATH INLET NODE_UNIT2_BACKROW_TOPFLOOR,Water,1
 Node,462,WATER BATH OUTLET NODE_UNIT2_BACKROW_TOPFLOOR,Water,1
 Node,463,MAINS MAKEUP PIPE INLET NODE_UNIT2_BACKROW_TOPFLOOR,Water,1
 Node,464,MAINS MAKEUP NODE_UNIT2_BACKROW_TOPFLOOR,Water,2
 Node,465,WATER HEATER USE INLET NODE_UNIT2_BACKROW_TOPFLOOR,Water,2
 Node,466,WATER HEATER USE OUTLET NODE_UNIT2_BACKROW_TOPFLOOR,Water,2
 Node,467,MAINS INLET NODE_UNIT3_BACKROW_TOPFLOOR,Water,2
 Node,468,MAINS PRESSURE OUTLET NODE_UNIT3_BACKROW_TOPFLOOR,Water,1
 Node,469,DHW SUPPLY OUTLET PIPE INLET NODE_UNIT3_BACKROW_TOPFLOOR,Water,1
 Node,470,DHW SUPPLY OUTLET NODE_UNIT3_BACKROW_TOPFLOOR,Water,4
 Node,471,DHW DEMAND INLET NODE_UNIT3_BACKROW_TOPFLOOR,Water,2
 Node,472,DHW DEMAND INLET PIPE OUTLET NODE_UNIT3_BACKROW_TOPFLOOR,Water,1
 Node,473,WATER SINK INLET NODE_UNIT3_BACKROW_TOPFLOOR,Water,1
 Node,474,WATER SINK OUTLET NODE_UNIT3_BACKROW_TOPFLOOR,Water,1
 Node,475,WATER SHOWER INLET NODE_UNIT3_BACKROW_TOPFLOOR,Water,1
 Node,476,WATER SHOWER OUTLET NODE_UNIT3_BACKROW_TOPFLOOR,Water,1
 Node,477,WATER CLOTHESWASHER INLET NODE_UNIT3_BACKROW_TOPFLOOR,Water,1
 Node,478,WATER CLOTHESWASHER OUTLET NODE_UNIT3_BACKROW_TOPFLOOR,Water,1
 Node,479,WATER DISHWASHER INLET NODE_UNIT3_BACKROW_TOPFLOOR,Water,1
 Node,480,WATER DISHWASHER OUTLET NODE_UNIT3_BACKROW_TOPFLOOR,Water,1
 Node,481,WATER BATH INLET NODE_UNIT3_BACKROW_TOPFLOOR,Water,1
 Node,482,WATER BATH OUTLET NODE_UNIT3_BACKROW_TOPFLOOR,Water,1
 Node,483,MAINS MAKEUP PIPE INLET NODE_UNIT3_BACKROW_TOPFLOOR,Water,1
 Node,484,MAINS MAKEUP NODE_UNIT3_BACKROW_TOPFLOOR,Water,2
 Node,485,WATER HEATER USE INLET NODE_UNIT3_BACKROW_TOPFLOOR,Water,2
 Node,486,WATER HEATER USE OUTLET NODE_UNIT3_BACKROW_TOPFLOOR,Water,2
 Node,487,ZONE NODE_UNIT1_FRONTROW_BOTTOMFLOOR,Air,0
 Node,488,ZONE OUTLET NODE_UNIT1_FRONTROW_BOTTOMFLOOR,Air,1
 Node,489,ZONE NODE_UNIT2_FRONTROW_BOTTOMFLOOR,Air,0
 Node,490,ZONE OUTLET NODE_UNIT2_FRONTROW_BOTTOMFLOOR,Air,1
 Node,491,ZONE NODE_UNIT3_FRONTROW_BOTTOMFLOOR,Air,0
 Node,492,ZONE OUTLET NODE_UNIT3_FRONTROW_BOTTOMFLOOR,Air,1
 Node,493,ZONE NODE_UNIT1_BACKROW_BOTTOMFLOOR,Air,0
 Node,494,ZONE OUTLET NODE_UNIT1_BACKROW_BOTTOMFLOOR,Air,1
 Node,495,ZONE NODE_UNIT2_BACKROW_BOTTOMFLOOR,Air,0
 Node,496,ZONE OUTLET NODE_UNIT2_BACKROW_BOTTOMFLOOR,Air,1
 Node,497,ZONE NODE_UNIT3_BACKROW_BOTTOMFLOOR,Air,0
 Node,498,ZONE OUTLET NODE_UNIT3_BACKROW_BOTTOMFLOOR,Air,1
 Node,499,ZONE NODE_UNIT1_FRONTROW_MIDDLEFLOOR,Air,0
 Node,500,ZONE OUTLET NODE_UNIT1_FRONTROW_MIDDLEFLOOR,Air,1
 Node,501,ZONE NODE_UNIT2_FRONTROW_MIDDLEFLOOR,Air,0
 Node,502,ZONE OUTLET NODE_UNIT2_FRONTROW_MIDDLEFLOOR,Air,1
 Node,503,ZONE NODE_UNIT3_FRONTROW_MIDDLEFLOOR,Air,0
 Node,504,ZONE OUTLET NODE_UNIT3_FRONTROW_MIDDLEFLOOR,Air,1
 Node,505,ZONE NODE_UNIT1_BACKROW_MIDDLEFLOOR,Air,0
 Node,506,ZONE OUTLET NODE_UNIT1_BACKROW_MIDDLEFLOOR,Air,1
 Node,507,ZONE NODE_UNIT2_BACKROW_MIDDLEFLOOR,Air,0
 Node,508,ZONE OUTLET NODE_UNIT2_BACKROW_MIDDLEFLOOR,Air,1
 Node,509,ZONE NODE_UNIT3_BACKROW_MIDDLEFLOOR,Air,0
 Node,510,ZONE OUTLET NODE_UNIT3_BACKROW_MIDDLEFLOOR,Air,1
 Node,511,ZONE NODE_UNIT1_FRONTROW_TOPFLOOR,Air,0
 Node,512,ZONE OUTLET NODE_UNIT1_FRONTROW_TOPFLOOR,Air,1
 Node,513,ZONE NODE_UNIT2_FRONTROW_TOPFLOOR,Air,0
 Node,514,ZONE OUTLET NODE_UNIT2_FRONTROW_TOPFLOOR,Air,1
 Node,515,ZONE NODE_UNIT3_FRONTROW_TOPFLOOR,Air,0
 Node,516,ZONE OUTLET NODE_UNIT3_FRONTROW_TOPFLOOR,Air,1
 Node,517,ZONE NODE_UNIT1_BACKROW_TOPFLOOR,Air,0
 Node,518,ZONE OUTLET NODE_UNIT1_BACKROW_TOPFLOOR,Air,1
 Node,519,ZONE NODE_UNIT2_BACKROW_TOPFLOOR,Air,0
 Node,520,ZONE OUTLET NODE_UNIT2_BACKROW_TOPFLOOR,Air,1
 Node,521,ZONE NODE_UNIT3_BACKROW_TOPFLOOR,Air,0
 Node,522,ZONE OUTLET NODE_UNIT3_BACKROW_TOPFLOOR,Air,1
 Node,523,ZONE EQUIPMENT INLET NODE_UNIT1_FRONTROW_BOTTOMFLOOR,Air,2
 Node,524,ZONE EQUIPMENT INLET NODE_UNIT2_FRONTROW_BOTTOMFLOOR,Air,2
 Node,525,ZONE EQUIPMENT INLET NODE_UNIT3_FRONTROW_BOTTOMFLOOR,Air,2
 Node,526,ZONE EQUIPMENT INLET NODE_UNIT1_BACKROW_BOTTOMFLOOR,Air,2
 Node,527,ZONE EQUIPMENT INLET NODE_UNIT2_BACKROW_BOTTOMFLOOR,Air,2
 Node,528,ZONE EQUIPMENT INLET NODE_UNIT3_BACKROW_BOTTOMFLOOR,Air,2
 Node,529,ZONE EQUIPMENT INLET NODE_UNIT1_FRONTROW_MIDDLEFLOOR,Air,2
 Node,530,ZONE EQUIPMENT INLET NODE_UNIT2_FRONTROW_MIDDLEFLOOR,Air,2
 Node,531,ZONE EQUIPMENT INLET NODE_UNIT3_FRONTROW_MIDDLEFLOOR,Air,2
 Node,532,ZONE EQUIPMENT INLET NODE_UNIT1_BACKROW_MIDDLEFLOOR,Air,2
 Node,533,ZONE EQUIPMENT INLET NODE_UNIT2_BACKROW_MIDDLEFLOOR,Air,2
 Node,534,ZONE EQUIPMENT INLET NODE_UNIT3_BACKROW_MIDDLEFLOOR,Air,2
 Node,535,ZONE EQUIPMENT INLET NODE_UNIT1_FRONTROW_TOPFLOOR,Air,2
 Node,536,ZONE EQUIPMENT INLET NODE_UNIT2_FRONTROW_TOPFLOOR,Air,2
 Node,537,ZONE EQUIPMENT INLET NODE_UNIT3_FRONTROW_TOPFLOOR,Air,2
 Node,538,ZONE EQUIPMENT INLET NODE_UNIT1_BACKROW_TOPFLOOR,Air,2
 Node,539,ZONE EQUIPMENT INLET NODE_UNIT2_BACKROW_TOPFLOOR,Air,2
 Node,540,ZONE EQUIPMENT INLET NODE_UNIT3_BACKROW_TOPFLOOR,Air,2
 Node,541,RETURN AIR MIXER OUTLET_UNIT1_FRONTROW_BOTTOMFLOOR,Air,2
 Node,542,RETURN AIR MIXER OUTLET_UNIT2_FRONTROW_BOTTOMFLOOR,Air,2
 Node,543,RETURN AIR MIXER OUTLET_UNIT3_FRONTROW_BOTTOMFLOOR,Air,2
 Node,544,RETURN AIR MIXER OUTLET_UNIT1_BACKROW_BOTTOMFLOOR,Air,2
 Node,545,RETURN AIR MIXER OUTLET_UNIT2_BACKROW_BOTTOMFLOOR,Air,2
 Node,546,RETURN AIR MIXER OUTLET_UNIT3_BACKROW_BOTTOMFLOOR,Air,2
 Node,547,RETURN AIR MIXER OUTLET_UNIT1_FRONTROW_MIDDLEFLOOR,Air,2
 Node,548,RETURN AIR MIXER OUTLET_UNIT2_FRONTROW_MIDDLEFLOOR,Air,2
 Node,549,RETURN AIR MIXER OUTLET_UNIT3_FRONTROW_MIDDLEFLOOR,Air,2
 Node,550,RETURN AIR MIXER OUTLET_UNIT1_BACKROW_MIDDLEFLOOR,Air,2
 Node,551,RETURN AIR MIXER OUTLET_UNIT2_BACKROW_MIDDLEFLOOR,Air,2
 Node,552,RETURN AIR MIXER OUTLET_UNIT3_BACKROW_MIDDLEFLOOR,Air,2
 Node,553,RETURN AIR MIXER OUTLET_UNIT1_FRONTROW_TOPFLOOR,Air,2
 Node,554,RETURN AIR MIXER OUTLET_UNIT2_FRONTROW_TOPFLOOR,Air,2
 Node,555,RETURN AIR MIXER OUTLET_UNIT3_FRONTROW_TOPFLOOR,Air,2
 Node,556,RETURN AIR MIXER OUTLET_UNIT1_BACKROW_TOPFLOOR,Air,2
 Node,557,RETURN AIR MIXER OUTLET_UNIT2_BACKROW_TOPFLOOR,Air,2
 Node,558,RETURN AIR MIXER OUTLET_UNIT3_BACKROW_TOPFLOOR,Air,2
 Node,559,COOLING COIL AIR INLET NODE_UNIT1_FRONTROW_BOTTOMFLOOR,Air,1
 Node,560,HEATING COIL AIR INLET NODE_UNIT1_FRONTROW_BOTTOMFLOOR,Air,1
 Node,561,COOLING COIL AIR INLET NODE_UNIT2_FRONTROW_BOTTOMFLOOR,Air,1
 Node,562,HEATING COIL AIR INLET NODE_UNIT2_FRONTROW_BOTTOMFLOOR,Air,1
 Node,563,COOLING COIL AIR INLET NODE_UNIT3_FRONTROW_BOTTOMFLOOR,Air,1
 Node,564,HEATING COIL AIR INLET NODE_UNIT3_FRONTROW_BOTTOMFLOOR,Air,1
 Node,565,COOLING COIL AIR INLET NODE_UNIT1_BACKROW_BOTTOMFLOOR,Air,1
 Node,566,HEATING COIL AIR INLET NODE_UNIT1_BACKROW_BOTTOMFLOOR,Air,1
 Node,567,COOLING COIL AIR INLET NODE_UNIT2_BACKROW_BOTTOMFLOOR,Air,1
 Node,568,HEATING COIL AIR INLET NODE_UNIT2_BACKROW_BOTTOMFLOOR,Air,1
 Node,569,COOLING COIL AIR INLET NODE_UNIT3_BACKROW_BOTTOMFLOOR,Air,1
 Node,570,HEATING COIL AIR INLET NODE_UNIT3_BACKROW_BOTTOMFLOOR,Air,1
 Node,571,COOLING COIL AIR INLET NODE_UNIT1_FRONTROW_MIDDLEFLOOR,Air,1
 Node,572,HEATING COIL AIR INLET NODE_UNIT1_FRONTROW_MIDDLEFLOOR,Air,1
 Node,573,COOLING COIL AIR INLET NODE_UNIT2_FRONTROW_MIDDLEFLOOR,Air,1
 Node,574,HEATING COIL AIR INLET NODE_UNIT2_FRONTROW_MIDDLEFLOOR,Air,1
 Node,575,COOLING COIL AIR INLET NODE_UNIT3_FRONTROW_MIDDLEFLOOR,Air,1
 Node,576,HEATING COIL AIR INLET NODE_UNIT3_FRONTROW_MIDDLEFLOOR,Air,1
 Node,577,COOLING COIL AIR INLET NODE_UNIT1_BACKROW_MIDDLEFLOOR,Air,1
 Node,578,HEATING COIL AIR INLET NODE_UNIT1_BACKROW_MIDDLEFLOOR,Air,1
 Node,579,COOLING COIL AIR INLET NODE_UNIT2_BACKROW_MIDDLEFLOOR,Air,1
 Node,580,HEATING COIL AIR INLET NODE_UNIT2_BACKROW_MIDDLEFLOOR,Air,1
 Node,581,COOLING COIL AIR INLET NODE_UNIT3_BACKROW_MIDDLEFLOOR,Air,1
 Node,582,HEATING COIL AIR INLET NODE_UNIT3_BACKROW_MIDDLEFLOOR,Air,1
 Node,583,COOLING COIL AIR INLET NODE_UNIT1_FRONTROW_TOPFLOOR,Air,1
 Node,584,HEATING COIL AIR INLET NODE_UNIT1_FRONTROW_TOPFLOOR,Air,1
 Node,585,COOLING COIL AIR INLET NODE_UNIT2_FRONTROW_TOPFLOOR,Air,1
 Node,586,HEATING COIL AIR INLET NODE_UNIT2_FRONTROW_TOPFLOOR,Air,1
 Node,587,COOLING COIL AIR INLET NODE_UNIT3_FRONTROW_TOPFLOOR,Air,1
 Node,588,HEATING COIL AIR INLET NODE_UNIT3_FRONTROW_TOPFLOOR,Air,1
 Node,589,COOLING COIL AIR INLET NODE_UNIT1_BACKROW_TOPFLOOR,Air,1
 Node,590,HEATING COIL AIR INLET NODE_UNIT1_BACKROW_TOPFLOOR,Air,1
 Node,591,COOLING COIL AIR INLET NODE_UNIT2_BACKROW_TOPFLOOR,Air,1
 Node,592,HEATING COIL AIR INLET NODE_UNIT2_BACKROW_TOPFLOOR,Air,1
 Node,593,COOLING COIL AIR INLET NODE_UNIT3_BACKROW_TOPFLOOR,Air,1
 Node,594,HEATING COIL AIR INLET NODE_UNIT3_BACKROW_TOPFLOOR,Air,1
 Node,595,SUPP HEATING COIL AIR INLET NODE_UNIT1_FRONTROW_BOTTOMFLOOR,Air,1
 Node,596,SUPP HEATING COIL AIR INLET NODE_UNIT2_FRONTROW_BOTTOMFLOOR,Air,1
 Node,597,SUPP HEATING COIL AIR INLET NODE_UNIT3_FRONTROW_BOTTOMFLOOR,Air,1
 Node,598,SUPP HEATING COIL AIR INLET NODE_UNIT1_BACKROW_BOTTOMFLOOR,Air,1
 Node,599,SUPP HEATING COIL AIR INLET NODE_UNIT2_BACKROW_BOTTOMFLOOR,Air,1
 Node,600,SUPP HEATING COIL AIR INLET NODE_UNIT3_BACKROW_BOTTOMFLOOR,Air,1
 Node,601,SUPP HEATING COIL AIR INLET NODE_UNIT1_FRONTROW_MIDDLEFLOOR,Air,1
 Node,602,SUPP HEATING COIL AIR INLET NODE_UNIT2_FRONTROW_MIDDLEFLOOR,Air,1
 Node,603,SUPP HEATING COIL AIR INLET NODE_UNIT3_FRONTROW_MIDDLEFLOOR,Air,1
 Node,604,SUPP HEATING COIL AIR INLET NODE_UNIT1_BACKROW_MIDDLEFLOOR,Air,1
 Node,605,SUPP HEATING COIL AIR INLET NODE_UNIT2_BACKROW_MIDDLEFLOOR,Air,1
 Node,606,SUPP HEATING COIL AIR INLET NODE_UNIT3_BACKROW_MIDDLEFLOOR,Air,1
 Node,607,SUPP HEATING COIL AIR INLET NODE_UNIT1_FRONTROW_TOPFLOOR,Air,1
 Node,608,SUPP HEATING COIL AIR INLET NODE_UNIT2_FRONTROW_TOPFLOOR,Air,1
 Node,609,SUPP HEATING COIL AIR INLET NODE_UNIT3_FRONTROW_TOPFLOOR,Air,1
 Node,610,SUPP HEATING COIL AIR INLET NODE_UNIT1_BACKROW_TOPFLOOR,Air,1
 Node,611,SUPP HEATING COIL AIR INLET NODE_UNIT2_BACKROW_TOPFLOOR,Air,1
 Node,612,SUPP HEATING COIL AIR INLET NODE_UNIT3_BACKROW_TOPFLOOR,Air,1
 Node,613,HEAT PUMP WATER HEATER FAN INLET NODE_UNIT1_FRONTROW_BOTTOMFLOOR,Air,1
 Node,614,OUTDOOR AIR NODE_UNIT1_FRONTROW_BOTTOMFLOOR,Air,2
 Node,615,OUTDOOR AIR NODE_UNIT2_FRONTROW_BOTTOMFLOOR,Air,2
 Node,616,OUTDOOR AIR NODE_UNIT3_FRONTROW_BOTTOMFLOOR,Air,2
 Node,617,OUTDOOR AIR NODE_UNIT1_BACKROW_BOTTOMFLOOR,Air,2
 Node,618,OUTDOOR AIR NODE_UNIT2_BACKROW_BOTTOMFLOOR,Air,2
 Node,619,OUTDOOR AIR NODE_UNIT3_BACKROW_BOTTOMFLOOR,Air,2
 Node,620,OUTDOOR AIR NODE_UNIT1_FRONTROW_MIDDLEFLOOR,Air,2
 Node,621,OUTDOOR AIR NODE_UNIT2_FRONTROW_MIDDLEFLOOR,Air,2
 Node,622,OUTDOOR AIR NODE_UNIT3_FRONTROW_MIDDLEFLOOR,Air,2
 Node,623,OUTDOOR AIR NODE_UNIT1_BACKROW_MIDDLEFLOOR,Air,2
 Node,624,OUTDOOR AIR NODE_UNIT2_BACKROW_MIDDLEFLOOR,Air,2
 Node,625,OUTDOOR AIR NODE_UNIT3_BACKROW_MIDDLEFLOOR,Air,2
 Node,626,OUTDOOR AIR NODE_UNIT1_FRONTROW_TOPFLOOR,Air,2
 Node,627,OUTDOOR AIR NODE_UNIT2_FRONTROW_TOPFLOOR,Air,2
 Node,628,OUTDOOR AIR NODE_UNIT3_FRONTROW_TOPFLOOR,Air,2
 Node,629,OUTDOOR AIR NODE_UNIT1_BACKROW_TOPFLOOR,Air,2
 Node,630,OUTDOOR AIR NODE_UNIT2_BACKROW_TOPFLOOR,Air,2
 Node,631,OUTDOOR AIR NODE_UNIT3_BACKROW_TOPFLOOR,Air,2
 Node,632,OUTSIDE AIR INLET NODE_UNIT1_FRONTROW_BOTTOMFLOOR,Air,0
 Node,633,OUTSIDE AIR INLET NODE_UNIT2_FRONTROW_BOTTOMFLOOR,Air,0
 Node,634,OUTSIDE AIR INLET NODE_UNIT3_FRONTROW_BOTTOMFLOOR,Air,0
 Node,635,OUTSIDE AIR INLET NODE_UNIT1_BACKROW_BOTTOMFLOOR,Air,0
 Node,636,OUTSIDE AIR INLET NODE_UNIT2_BACKROW_BOTTOMFLOOR,Air,0
 Node,637,OUTSIDE AIR INLET NODE_UNIT3_BACKROW_BOTTOMFLOOR,Air,0
 Node,638,OUTSIDE AIR INLET NODE_UNIT1_FRONTROW_MIDDLEFLOOR,Air,0
 Node,639,OUTSIDE AIR INLET NODE_UNIT2_FRONTROW_MIDDLEFLOOR,Air,0
 Node,640,OUTSIDE AIR INLET NODE_UNIT3_FRONTROW_MIDDLEFLOOR,Air,0
 Node,641,OUTSIDE AIR INLET NODE_UNIT1_BACKROW_MIDDLEFLOOR,Air,0
 Node,642,OUTSIDE AIR INLET NODE_UNIT2_BACKROW_MIDDLEFLOOR,Air,0
 Node,643,OUTSIDE AIR INLET NODE_UNIT3_BACKROW_MIDDLEFLOOR,Air,0
 Node,644,OUTSIDE AIR INLET NODE_UNIT1_FRONTROW_TOPFLOOR,Air,0
 Node,645,OUTSIDE AIR INLET NODE_UNIT2_FRONTROW_TOPFLOOR,Air,0
 Node,646,OUTSIDE AIR INLET NODE_UNIT3_FRONTROW_TOPFLOOR,Air,0
 Node,647,OUTSIDE AIR INLET NODE_UNIT1_BACKROW_TOPFLOOR,Air,0
 Node,648,OUTSIDE AIR INLET NODE_UNIT2_BACKROW_TOPFLOOR,Air,0
 Node,649,OUTSIDE AIR INLET NODE_UNIT3_BACKROW_TOPFLOOR,Air,0
 Node,650,DUMMY CONDENSER INLET HEAT PUMP WATER HEATER EVAPORATOR_UNIT1_FRONTROW_BOTTOMFLOOR,Water,2
 Node,651,DUMMY CONDENSER OUTLET HEAT PUMP WATER HEATER EVAPORATOR_UNIT1_FRONTROW_BOTTOMFLOOR,Water,2
 Node,652,HEAT PUMP WATER HEATER FAN INLET NODE_UNIT2_FRONTROW_BOTTOMFLOOR,Air,1
 Node,653,DUMMY CONDENSER INLET HEAT PUMP WATER HEATER EVAPORATOR_UNIT2_FRONTROW_BOTTOMFLOOR,Water,2
 Node,654,DUMMY CONDENSER OUTLET HEAT PUMP WATER HEATER EVAPORATOR_UNIT2_FRONTROW_BOTTOMFLOOR,Water,2
 Node,655,HEAT PUMP WATER HEATER FAN INLET NODE_UNIT3_FRONTROW_BOTTOMFLOOR,Air,1
 Node,656,DUMMY CONDENSER INLET HEAT PUMP WATER HEATER EVAPORATOR_UNIT3_FRONTROW_BOTTOMFLOOR,Water,2
 Node,657,DUMMY CONDENSER OUTLET HEAT PUMP WATER HEATER EVAPORATOR_UNIT3_FRONTROW_BOTTOMFLOOR,Water,2
 Node,658,HEAT PUMP WATER HEATER FAN INLET NODE_UNIT1_BACKROW_BOTTOMFLOOR,Air,1
 Node,659,DUMMY CONDENSER INLET HEAT PUMP WATER HEATER EVAPORATOR_UNIT1_BACKROW_BOTTOMFLOOR,Water,2
 Node,660,DUMMY CONDENSER OUTLET HEAT PUMP WATER HEATER EVAPORATOR_UNIT1_BACKROW_BOTTOMFLOOR,Water,2
 Node,661,HEAT PUMP WATER HEATER FAN INLET NODE_UNIT2_BACKROW_BOTTOMFLOOR,Air,1
 Node,662,DUMMY CONDENSER INLET HEAT PUMP WATER HEATER EVAPORATOR_UNIT2_BACKROW_BOTTOMFLOOR,Water,2
 Node,663,DUMMY CONDENSER OUTLET HEAT PUMP WATER HEATER EVAPORATOR_UNIT2_BACKROW_BOTTOMFLOOR,Water,2
 Node,664,HEAT PUMP WATER HEATER FAN INLET NODE_UNIT3_BACKROW_BOTTOMFLOOR,Air,1
 Node,665,DUMMY CONDENSER INLET HEAT PUMP WATER HEATER EVAPORATOR_UNIT3_BACKROW_BOTTOMFLOOR,Water,2
 Node,666,DUMMY CONDENSER OUTLET HEAT PUMP WATER HEATER EVAPORATOR_UNIT3_BACKROW_BOTTOMFLOOR,Water,2
 Node,667,HEAT PUMP WATER HEATER FAN INLET NODE_UNIT1_FRONTROW_MIDDLEFLOOR,Air,1
 Node,668,DUMMY CONDENSER INLET HEAT PUMP WATER HEATER EVAPORATOR_UNIT1_FRONTROW_MIDDLEFLOOR,Water,2
 Node,669,DUMMY CONDENSER OUTLET HEAT PUMP WATER HEATER EVAPORATOR_UNIT1_FRONTROW_MIDDLEFLOOR,Water,2
 Node,670,HEAT PUMP WATER HEATER FAN INLET NODE_UNIT2_FRONTROW_MIDDLEFLOOR,Air,1
 Node,671,DUMMY CONDENSER INLET HEAT PUMP WATER HEATER EVAPORATOR_UNIT2_FRONTROW_MIDDLEFLOOR,Water,2
 Node,672,DUMMY CONDENSER OUTLET HEAT PUMP WATER HEATER EVAPORATOR_UNIT2_FRONTROW_MIDDLEFLOOR,Water,2
 Node,673,HEAT PUMP WATER HEATER FAN INLET NODE_UNIT3_FRONTROW_MIDDLEFLOOR,Air,1
 Node,674,DUMMY CONDENSER INLET HEAT PUMP WATER HEATER EVAPORATOR_UNIT3_FRONTROW_MIDDLEFLOOR,Water,2
 Node,675,DUMMY CONDENSER OUTLET HEAT PUMP WATER HEATER EVAPORATOR_UNIT3_FRONTROW_MIDDLEFLOOR,Water,2
 Node,676,HEAT PUMP WATER HEATER FAN INLET NODE_UNIT1_BACKROW_MIDDLEFLOOR,Air,1
 Node,677,DUMMY CONDENSER INLET HEAT PUMP WATER HEATER EVAPORATOR_UNIT1_BACKROW_MIDDLEFLOOR,Water,2
 Node,678,DUMMY CONDENSER OUTLET HEAT PUMP WATER HEATER EVAPORATOR_UNIT1_BACKROW_MIDDLEFLOOR,Water,2
 Node,679,HEAT PUMP WATER HEATER FAN INLET NODE_UNIT2_BACKROW_MIDDLEFLOOR,Air,1
 Node,680,DUMMY CONDENSER INLET HEAT PUMP WATER HEATER EVAPORATOR_UNIT2_BACKROW_MIDDLEFLOOR,Water,2
 Node,681,DUMMY CONDENSER OUTLET HEAT PUMP WATER HEATER EVAPORATOR_UNIT2_BACKROW_MIDDLEFLOOR,Water,2
 Node,682,HEAT PUMP WATER HEATER FAN INLET NODE_UNIT3_BACKROW_MIDDLEFLOOR,Air,1
 Node,683,DUMMY CONDENSER INLET HEAT PUMP WATER HEATER EVAPORATOR_UNIT3_BACKROW_MIDDLEFLOOR,Water,2
 Node,684,DUMMY CONDENSER OUTLET HEAT PUMP WATER HEATER EVAPORATOR_UNIT3_BACKROW_MIDDLEFLOOR,Water,2
 Node,685,HEAT PUMP WATER HEATER FAN INLET NODE_UNIT1_FRONTROW_TOPFLOOR,Air,1
 Node,686,DUMMY CONDENSER INLET HEAT PUMP WATER HEATER EVAPORATOR_UNIT1_FRONTROW_TOPFLOOR,Water,2
 Node,687,DUMMY CONDENSER OUTLET HEAT PUMP WATER HEATER EVAPORATOR_UNIT1_FRONTROW_TOPFLOOR,Water,2
 Node,688,HEAT PUMP WATER HEATER FAN INLET NODE_UNIT2_FRONTROW_TOPFLOOR,Air,1
 Node,689,DUMMY CONDENSER INLET HEAT PUMP WATER HEATER EVAPORATOR_UNIT2_FRONTROW_TOPFLOOR,Water,2
 Node,690,DUMMY CONDENSER OUTLET HEAT PUMP WATER HEATER EVAPORATOR_UNIT2_FRONTROW_TOPFLOOR,Water,2
 Node,691,HEAT PUMP WATER HEATER FAN INLET NODE_UNIT3_FRONTROW_TOPFLOOR,Air,1
 Node,692,DUMMY CONDENSER INLET HEAT PUMP WATER HEATER EVAPORATOR_UNIT3_FRONTROW_TOPFLOOR,Water,2
 Node,693,DUMMY CONDENSER OUTLET HEAT PUMP WATER HEATER EVAPORATOR_UNIT3_FRONTROW_TOPFLOOR,Water,2
 Node,694,HEAT PUMP WATER HEATER FAN INLET NODE_UNIT1_BACKROW_TOPFLOOR,Air,1
 Node,695,DUMMY CONDENSER INLET HEAT PUMP WATER HEATER EVAPORATOR_UNIT1_BACKROW_TOPFLOOR,Water,2
 Node,696,DUMMY CONDENSER OUTLET HEAT PUMP WATER HEATER EVAPORATOR_UNIT1_BACKROW_TOPFLOOR,Water,2
 Node,697,HEAT PUMP WATER HEATER FAN INLET NODE_UNIT2_BACKROW_TOPFLOOR,Air,1
 Node,698,DUMMY CONDENSER INLET HEAT PUMP WATER HEATER EVAPORATOR_UNIT2_BACKROW_TOPFLOOR,Water,2
 Node,699,DUMMY CONDENSER OUTLET HEAT PUMP WATER HEATER EVAPORATOR_UNIT2_BACKROW_TOPFLOOR,Water,2
 Node,700,HEAT PUMP WATER HEATER FAN INLET NODE_UNIT3_BACKROW_TOPFLOOR,Air,1
 Node,701,DUMMY CONDENSER INLET HEAT PUMP WATER HEATER EVAPORATOR_UNIT3_BACKROW_TOPFLOOR,Water,2
 Node,702,DUMMY CONDENSER OUTLET HEAT PUMP WATER HEATER EVAPORATOR_UNIT3_BACKROW_TOPFLOOR,Water,2
 Node,703,OA FAN INLET NODE_UNIT1_FRONTROW_BOTTOMFLOOR,Air,1
 Node,704,ERVEXHAUSTNODE_UNIT1_FRONTROW_BOTTOMFLOOR,Air,1
 Node,705,EXHAUST OUTLET NODE_UNIT1_FRONTROW_BOTTOMFLOOR,Air,1
 Node,706,OA FAN INLET NODE_UNIT2_FRONTROW_BOTTOMFLOOR,Air,1
 Node,707,ERVEXHAUSTNODE_UNIT2_FRONTROW_BOTTOMFLOOR,Air,1
 Node,708,EXHAUST OUTLET NODE_UNIT2_FRONTROW_BOTTOMFLOOR,Air,1
 Node,709,OA FAN INLET NODE_UNIT3_FRONTROW_BOTTOMFLOOR,Air,1
 Node,710,ERVEXHAUSTNODE_UNIT3_FRONTROW_BOTTOMFLOOR,Air,1
 Node,711,EXHAUST OUTLET NODE_UNIT3_FRONTROW_BOTTOMFLOOR,Air,1
 Node,712,OA FAN INLET NODE_UNIT1_BACKROW_BOTTOMFLOOR,Air,1
 Node,713,ERVEXHAUSTNODE_UNIT1_BACKROW_BOTTOMFLOOR,Air,1
 Node,714,EXHAUST OUTLET NODE_UNIT1_BACKROW_BOTTOMFLOOR,Air,1
 Node,715,OA FAN INLET NODE_UNIT2_BACKROW_BOTTOMFLOOR,Air,1
 Node,716,ERVEXHAUSTNODE_UNIT2_BACKROW_BOTTOMFLOOR,Air,1
 Node,717,EXHAUST OUTLET NODE_UNIT2_BACKROW_BOTTOMFLOOR,Air,1
 Node,718,OA FAN INLET NODE_UNIT3_BACKROW_BOTTOMFLOOR,Air,1
 Node,719,ERVEXHAUSTNODE_UNIT3_BACKROW_BOTTOMFLOOR,Air,1
 Node,720,EXHAUST OUTLET NODE_UNIT3_BACKROW_BOTTOMFLOOR,Air,1
 Node,721,OA FAN INLET NODE_UNIT1_FRONTROW_MIDDLEFLOOR,Air,1
 Node,722,ERVEXHAUSTNODE_UNIT1_FRONTROW_MIDDLEFLOOR,Air,1
 Node,723,EXHAUST OUTLET NODE_UNIT1_FRONTROW_MIDDLEFLOOR,Air,1
 Node,724,OA FAN INLET NODE_UNIT2_FRONTROW_MIDDLEFLOOR,Air,1
 Node,725,ERVEXHAUSTNODE_UNIT2_FRONTROW_MIDDLEFLOOR,Air,1
 Node,726,EXHAUST OUTLET NODE_UNIT2_FRONTROW_MIDDLEFLOOR,Air,1
 Node,727,OA FAN INLET NODE_UNIT3_FRONTROW_MIDDLEFLOOR,Air,1
 Node,728,ERVEXHAUSTNODE_UNIT3_FRONTROW_MIDDLEFLOOR,Air,1
 Node,729,EXHAUST OUTLET NODE_UNIT3_FRONTROW_MIDDLEFLOOR,Air,1
 Node,730,OA FAN INLET NODE_UNIT1_BACKROW_MIDDLEFLOOR,Air,1
 Node,731,ERVEXHAUSTNODE_UNIT1_BACKROW_MIDDLEFLOOR,Air,1
 Node,732,EXHAUST OUTLET NODE_UNIT1_BACKROW_MIDDLEFLOOR,Air,1
 Node,733,OA FAN INLET NODE_UNIT2_BACKROW_MIDDLEFLOOR,Air,1
 Node,734,ERVEXHAUSTNODE_UNIT2_BACKROW_MIDDLEFLOOR,Air,1
 Node,735,EXHAUST OUTLET NODE_UNIT2_BACKROW_MIDDLEFLOOR,Air,1
 Node,736,OA FAN INLET NODE_UNIT3_BACKROW_MIDDLEFLOOR,Air,1
 Node,737,ERVEXHAUSTNODE_UNIT3_BACKROW_MIDDLEFLOOR,Air,1
 Node,738,EXHAUST OUTLET NODE_UNIT3_BACKROW_MIDDLEFLOOR,Air,1
 Node,739,OA FAN INLET NODE_UNIT1_FRONTROW_TOPFLOOR,Air,1
 Node,740,ERVEXHAUSTNODE_UNIT1_FRONTROW_TOPFLOOR,Air,1
 Node,741,EXHAUST OUTLET NODE_UNIT1_FRONTROW_TOPFLOOR,Air,1
 Node,742,OA FAN INLET NODE_UNIT2_FRONTROW_TOPFLOOR,Air,1
 Node,743,ERVEXHAUSTNODE_UNIT2_FRONTROW_TOPFLOOR,Air,1
 Node,744,EXHAUST OUTLET NODE_UNIT2_FRONTROW_TOPFLOOR,Air,1
 Node,745,OA FAN INLET NODE_UNIT3_FRONTROW_TOPFLOOR,Air,1
 Node,746,ERVEXHAUSTNODE_UNIT3_FRONTROW_TOPFLOOR,Air,1
 Node,747,EXHAUST OUTLET NODE_UNIT3_FRONTROW_TOPFLOOR,Air,1
 Node,748,OA FAN INLET NODE_UNIT1_BACKROW_TOPFLOOR,Air,1
 Node,749,ERVEXHAUSTNODE_UNIT1_BACKROW_TOPFLOOR,Air,1
 Node,750,EXHAUST OUTLET NODE_UNIT1_BACKROW_TOPFLOOR,Air,1
 Node,751,OA FAN INLET NODE_UNIT2_BACKROW_TOPFLOOR,Air,1
 Node,752,ERVEXHAUSTNODE_UNIT2_BACKROW_TOPFLOOR,Air,1
 Node,753,EXHAUST OUTLET NODE_UNIT2_BACKROW_TOPFLOOR,Air,1
 Node,754,OA FAN INLET NODE_UNIT3_BACKROW_TOPFLOOR,Air,1
 Node,755,ERVEXHAUSTNODE_UNIT3_BACKROW_TOPFLOOR,Air,1
 Node,756,EXHAUST OUTLET NODE_UNIT3_BACKROW_TOPFLOOR,Air,1
 Node,757,ZONE INLET NODE_UNIT1_FRONTROW_BOTTOMFLOOR ATINLET,Air,1
 Node,758,ZONE INLET NODE_UNIT2_FRONTROW_BOTTOMFLOOR ATINLET,Air,1
 Node,759,ZONE INLET NODE_UNIT3_FRONTROW_BOTTOMFLOOR ATINLET,Air,1
 Node,760,ZONE INLET NODE_UNIT1_BACKROW_BOTTOMFLOOR ATINLET,Air,1
 Node,761,ZONE INLET NODE_UNIT2_BACKROW_BOTTOMFLOOR ATINLET,Air,1
 Node,762,ZONE INLET NODE_UNIT3_BACKROW_BOTTOMFLOOR ATINLET,Air,1
 Node,763,ZONE INLET NODE_UNIT1_FRONTROW_MIDDLEFLOOR ATINLET,Air,1
 Node,764,ZONE INLET NODE_UNIT2_FRONTROW_MIDDLEFLOOR ATINLET,Air,1
 Node,765,ZONE INLET NODE_UNIT3_FRONTROW_MIDDLEFLOOR ATINLET,Air,1
 Node,766,ZONE INLET NODE_UNIT1_BACKROW_MIDDLEFLOOR ATINLET,Air,1
 Node,767,ZONE INLET NODE_UNIT2_BACKROW_MIDDLEFLOOR ATINLET,Air,1
 Node,768,ZONE INLET NODE_UNIT3_BACKROW_MIDDLEFLOOR ATINLET,Air,1
 Node,769,ZONE INLET NODE_UNIT1_FRONTROW_TOPFLOOR ATINLET,Air,1
 Node,770,ZONE INLET NODE_UNIT2_FRONTROW_TOPFLOOR ATINLET,Air,1
 Node,771,ZONE INLET NODE_UNIT3_FRONTROW_TOPFLOOR ATINLET,Air,1
 Node,772,ZONE INLET NODE_UNIT1_BACKROW_TOPFLOOR ATINLET,Air,1
 Node,773,ZONE INLET NODE_UNIT2_BACKROW_TOPFLOOR ATINLET,Air,1
 Node,774,ZONE INLET NODE_UNIT3_BACKROW_TOPFLOOR ATINLET,Air,1
! ===============================================================
! Suspicious nodes have 0 references.  It is normal for some nodes, however.
! Listing nodes with 0 references (culled from previous list):
! <Suspicious Node>,<NodeNumber>,<Node Name>,<Node Fluid Type>,<# Times Node Referenced After Definition>
 Suspicious Node,487,ZONE NODE_UNIT1_FRONTROW_BOTTOMFLOOR,Air,0
 Suspicious Node,489,ZONE NODE_UNIT2_FRONTROW_BOTTOMFLOOR,Air,0
 Suspicious Node,491,ZONE NODE_UNIT3_FRONTROW_BOTTOMFLOOR,Air,0
 Suspicious Node,493,ZONE NODE_UNIT1_BACKROW_BOTTOMFLOOR,Air,0
 Suspicious Node,495,ZONE NODE_UNIT2_BACKROW_BOTTOMFLOOR,Air,0
 Suspicious Node,497,ZONE NODE_UNIT3_BACKROW_BOTTOMFLOOR,Air,0
 Suspicious Node,499,ZONE NODE_UNIT1_FRONTROW_MIDDLEFLOOR,Air,0
 Suspicious Node,501,ZONE NODE_UNIT2_FRONTROW_MIDDLEFLOOR,Air,0
 Suspicious Node,503,ZONE NODE_UNIT3_FRONTROW_MIDDLEFLOOR,Air,0
 Suspicious Node,505,ZONE NODE_UNIT1_BACKROW_MIDDLEFLOOR,Air,0
 Suspicious Node,507,ZONE NODE_UNIT2_BACKROW_MIDDLEFLOOR,Air,0
 Suspicious Node,509,ZONE NODE_UNIT3_BACKROW_MIDDLEFLOOR,Air,0
 Suspicious Node,511,ZONE NODE_UNIT1_FRONTROW_TOPFLOOR,Air,0
 Suspicious Node,513,ZONE NODE_UNIT2_FRONTROW_TOPFLOOR,Air,0
 Suspicious Node,515,ZONE NODE_UNIT3_FRONTROW_TOPFLOOR,Air,0
 Suspicious Node,517,ZONE NODE_UNIT1_BACKROW_TOPFLOOR,Air,0
 Suspicious Node,519,ZONE NODE_UNIT2_BACKROW_TOPFLOOR,Air,0
 Suspicious Node,521,ZONE NODE_UNIT3_BACKROW_TOPFLOOR,Air,0
 Suspicious Node,632,OUTSIDE AIR INLET NODE_UNIT1_FRONTROW_BOTTOMFLOOR,Air,0
 Suspicious Node,633,OUTSIDE AIR INLET NODE_UNIT2_FRONTROW_BOTTOMFLOOR,Air,0
 Suspicious Node,634,OUTSIDE AIR INLET NODE_UNIT3_FRONTROW_BOTTOMFLOOR,Air,0
 Suspicious Node,635,OUTSIDE AIR INLET NODE_UNIT1_BACKROW_BOTTOMFLOOR,Air,0
 Suspicious Node,636,OUTSIDE AIR INLET NODE_UNIT2_BACKROW_BOTTOMFLOOR,Air,0
 Suspicious Node,637,OUTSIDE AIR INLET NODE_UNIT3_BACKROW_BOTTOMFLOOR,Air,0
 Suspicious Node,638,OUTSIDE AIR INLET NODE_UNIT1_FRONTROW_MIDDLEFLOOR,Air,0
 Suspicious Node,639,OUTSIDE AIR INLET NODE_UNIT2_FRONTROW_MIDDLEFLOOR,Air,0
 Suspicious Node,640,OUTSIDE AIR INLET NODE_UNIT3_FRONTROW_MIDDLEFLOOR,Air,0
 Suspicious Node,641,OUTSIDE AIR INLET NODE_UNIT1_BACKROW_MIDDLEFLOOR,Air,0
 Suspicious Node,642,OUTSIDE AIR INLET NODE_UNIT2_BACKROW_MIDDLEFLOOR,Air,0
 Suspicious Node,643,OUTSIDE AIR INLET NODE_UNIT3_BACKROW_MIDDLEFLOOR,Air,0
 Suspicious Node,644,OUTSIDE AIR INLET NODE_UNIT1_FRONTROW_TOPFLOOR,Air,0
 Suspicious Node,645,OUTSIDE AIR INLET NODE_UNIT2_FRONTROW_TOPFLOOR,Air,0
 Suspicious Node,646,OUTSIDE AIR INLET NODE_UNIT3_FRONTROW_TOPFLOOR,Air,0
 Suspicious Node,647,OUTSIDE AIR INLET NODE_UNIT1_BACKROW_TOPFLOOR,Air,0
 Suspicious Node,648,OUTSIDE AIR INLET NODE_UNIT2_BACKROW_TOPFLOOR,Air,0
 Suspicious Node,649,OUTSIDE AIR INLET NODE_UNIT3_BACKROW_TOPFLOOR,Air,0
! ===============================================================
! <#Branch Lists>,<Number of Branch Lists>
 #Branch Lists,54
! <Branch List>,<Branch List Count>,<Branch List Name>,<Loop Name>,<Loop Type>,<Number of Branches>
! <Branch>,<Branch Count>,<Branch Name>,<Loop Name>,<Loop Type>,<Branch Inlet Node Name>,<Branch Outlet Node Name>
 Branch List,1,AIR LOOP BRANCHES_UNIT1_FRONTROW_BOTTOMFLOOR,CENTRAL SYSTEM_UNIT1_FRONTROW_BOTTOMFLOOR,Air,1
   Branch,1,AIR LOOP MAIN BRANCH_UNIT1_FRONTROW_BOTTOMFLOOR,CENTRAL SYSTEM_UNIT1_FRONTROW_BOTTOMFLOOR,Air,AIR LOOP INLET NODE_UNIT1_FRONTROW_BOTTOMFLOOR,AIR LOOP OUTLET NODE_UNIT1_FRONTROW_BOTTOMFLOOR
 Branch List,2,AIR LOOP BRANCHES_UNIT2_FRONTROW_BOTTOMFLOOR,CENTRAL SYSTEM_UNIT2_FRONTROW_BOTTOMFLOOR,Air,1
   Branch,1,AIR LOOP MAIN BRANCH_UNIT2_FRONTROW_BOTTOMFLOOR,CENTRAL SYSTEM_UNIT2_FRONTROW_BOTTOMFLOOR,Air,AIR LOOP INLET NODE_UNIT2_FRONTROW_BOTTOMFLOOR,AIR LOOP OUTLET NODE_UNIT2_FRONTROW_BOTTOMFLOOR
 Branch List,3,AIR LOOP BRANCHES_UNIT3_FRONTROW_BOTTOMFLOOR,CENTRAL SYSTEM_UNIT3_FRONTROW_BOTTOMFLOOR,Air,1
   Branch,1,AIR LOOP MAIN BRANCH_UNIT3_FRONTROW_BOTTOMFLOOR,CENTRAL SYSTEM_UNIT3_FRONTROW_BOTTOMFLOOR,Air,AIR LOOP INLET NODE_UNIT3_FRONTROW_BOTTOMFLOOR,AIR LOOP OUTLET NODE_UNIT3_FRONTROW_BOTTOMFLOOR
 Branch List,4,AIR LOOP BRANCHES_UNIT1_BACKROW_BOTTOMFLOOR,CENTRAL SYSTEM_UNIT1_BACKROW_BOTTOMFLOOR,Air,1
   Branch,1,AIR LOOP MAIN BRANCH_UNIT1_BACKROW_BOTTOMFLOOR,CENTRAL SYSTEM_UNIT1_BACKROW_BOTTOMFLOOR,Air,AIR LOOP INLET NODE_UNIT1_BACKROW_BOTTOMFLOOR,AIR LOOP OUTLET NODE_UNIT1_BACKROW_BOTTOMFLOOR
 Branch List,5,AIR LOOP BRANCHES_UNIT2_BACKROW_BOTTOMFLOOR,CENTRAL SYSTEM_UNIT2_BACKROW_BOTTOMFLOOR,Air,1
   Branch,1,AIR LOOP MAIN BRANCH_UNIT2_BACKROW_BOTTOMFLOOR,CENTRAL SYSTEM_UNIT2_BACKROW_BOTTOMFLOOR,Air,AIR LOOP INLET NODE_UNIT2_BACKROW_BOTTOMFLOOR,AIR LOOP OUTLET NODE_UNIT2_BACKROW_BOTTOMFLOOR
 Branch List,6,AIR LOOP BRANCHES_UNIT3_BACKROW_BOTTOMFLOOR,CENTRAL SYSTEM_UNIT3_BACKROW_BOTTOMFLOOR,Air,1
   Branch,1,AIR LOOP MAIN BRANCH_UNIT3_BACKROW_BOTTOMFLOOR,CENTRAL SYSTEM_UNIT3_BACKROW_BOTTOMFLOOR,Air,AIR LOOP INLET NODE_UNIT3_BACKROW_BOTTOMFLOOR,AIR LOOP OUTLET NODE_UNIT3_BACKROW_BOTTOMFLOOR
 Branch List,7,AIR LOOP BRANCHES_UNIT1_FRONTROW_MIDDLEFLOOR,CENTRAL SYSTEM_UNIT1_FRONTROW_MIDDLEFLOOR,Air,1
   Branch,1,AIR LOOP MAIN BRANCH_UNIT1_FRONTROW_MIDDLEFLOOR,CENTRAL SYSTEM_UNIT1_FRONTROW_MIDDLEFLOOR,Air,AIR LOOP INLET NODE_UNIT1_FRONTROW_MIDDLEFLOOR,AIR LOOP OUTLET NODE_UNIT1_FRONTROW_MIDDLEFLOOR
 Branch List,8,AIR LOOP BRANCHES_UNIT2_FRONTROW_MIDDLEFLOOR,CENTRAL SYSTEM_UNIT2_FRONTROW_MIDDLEFLOOR,Air,1
   Branch,1,AIR LOOP MAIN BRANCH_UNIT2_FRONTROW_MIDDLEFLOOR,CENTRAL SYSTEM_UNIT2_FRONTROW_MIDDLEFLOOR,Air,AIR LOOP INLET NODE_UNIT2_FRONTROW_MIDDLEFLOOR,AIR LOOP OUTLET NODE_UNIT2_FRONTROW_MIDDLEFLOOR
 Branch List,9,AIR LOOP BRANCHES_UNIT3_FRONTROW_MIDDLEFLOOR,CENTRAL SYSTEM_UNIT3_FRONTROW_MIDDLEFLOOR,Air,1
   Branch,1,AIR LOOP MAIN BRANCH_UNIT3_FRONTROW_MIDDLEFLOOR,CENTRAL SYSTEM_UNIT3_FRONTROW_MIDDLEFLOOR,Air,AIR LOOP INLET NODE_UNIT3_FRONTROW_MIDDLEFLOOR,AIR LOOP OUTLET NODE_UNIT3_FRONTROW_MIDDLEFLOOR
 Branch List,10,AIR LOOP BRANCHES_UNIT1_BACKROW_MIDDLEFLOOR,CENTRAL SYSTEM_UNIT1_BACKROW_MIDDLEFLOOR,Air,1
   Branch,1,AIR LOOP MAIN BRANCH_UNIT1_BACKROW_MIDDLEFLOOR,CENTRAL SYSTEM_UNIT1_BACKROW_MIDDLEFLOOR,Air,AIR LOOP INLET NODE_UNIT1_BACKROW_MIDDLEFLOOR,AIR LOOP OUTLET NODE_UNIT1_BACKROW_MIDDLEFLOOR
 Branch List,11,AIR LOOP BRANCHES_UNIT2_BACKROW_MIDDLEFLOOR,CENTRAL SYSTEM_UNIT2_BACKROW_MIDDLEFLOOR,Air,1
   Branch,1,AIR LOOP MAIN BRANCH_UNIT2_BACKROW_MIDDLEFLOOR,CENTRAL SYSTEM_UNIT2_BACKROW_MIDDLEFLOOR,Air,AIR LOOP INLET NODE_UNIT2_BACKROW_MIDDLEFLOOR,AIR LOOP OUTLET NODE_UNIT2_BACKROW_MIDDLEFLOOR
 Branch List,12,AIR LOOP BRANCHES_UNIT3_BACKROW_MIDDLEFLOOR,CENTRAL SYSTEM_UNIT3_BACKROW_MIDDLEFLOOR,Air,1
   Branch,1,AIR LOOP MAIN BRANCH_UNIT3_BACKROW_MIDDLEFLOOR,CENTRAL SYSTEM_UNIT3_BACKROW_MIDDLEFLOOR,Air,AIR LOOP INLET NODE_UNIT3_BACKROW_MIDDLEFLOOR,AIR LOOP OUTLET NODE_UNIT3_BACKROW_MIDDLEFLOOR
 Branch List,13,AIR LOOP BRANCHES_UNIT1_FRONTROW_TOPFLOOR,CENTRAL SYSTEM_UNIT1_FRONTROW_TOPFLOOR,Air,1
   Branch,1,AIR LOOP MAIN BRANCH_UNIT1_FRONTROW_TOPFLOOR,CENTRAL SYSTEM_UNIT1_FRONTROW_TOPFLOOR,Air,AIR LOOP INLET NODE_UNIT1_FRONTROW_TOPFLOOR,AIR LOOP OUTLET NODE_UNIT1_FRONTROW_TOPFLOOR
 Branch List,14,AIR LOOP BRANCHES_UNIT2_FRONTROW_TOPFLOOR,CENTRAL SYSTEM_UNIT2_FRONTROW_TOPFLOOR,Air,1
   Branch,1,AIR LOOP MAIN BRANCH_UNIT2_FRONTROW_TOPFLOOR,CENTRAL SYSTEM_UNIT2_FRONTROW_TOPFLOOR,Air,AIR LOOP INLET NODE_UNIT2_FRONTROW_TOPFLOOR,AIR LOOP OUTLET NODE_UNIT2_FRONTROW_TOPFLOOR
 Branch List,15,AIR LOOP BRANCHES_UNIT3_FRONTROW_TOPFLOOR,CENTRAL SYSTEM_UNIT3_FRONTROW_TOPFLOOR,Air,1
   Branch,1,AIR LOOP MAIN BRANCH_UNIT3_FRONTROW_TOPFLOOR,CENTRAL SYSTEM_UNIT3_FRONTROW_TOPFLOOR,Air,AIR LOOP INLET NODE_UNIT3_FRONTROW_TOPFLOOR,AIR LOOP OUTLET NODE_UNIT3_FRONTROW_TOPFLOOR
 Branch List,16,AIR LOOP BRANCHES_UNIT1_BACKROW_TOPFLOOR,CENTRAL SYSTEM_UNIT1_BACKROW_TOPFLOOR,Air,1
   Branch,1,AIR LOOP MAIN BRANCH_UNIT1_BACKROW_TOPFLOOR,CENTRAL SYSTEM_UNIT1_BACKROW_TOPFLOOR,Air,AIR LOOP INLET NODE_UNIT1_BACKROW_TOPFLOOR,AIR LOOP OUTLET NODE_UNIT1_BACKROW_TOPFLOOR
 Branch List,17,AIR LOOP BRANCHES_UNIT2_BACKROW_TOPFLOOR,CENTRAL SYSTEM_UNIT2_BACKROW_TOPFLOOR,Air,1
   Branch,1,AIR LOOP MAIN BRANCH_UNIT2_BACKROW_TOPFLOOR,CENTRAL SYSTEM_UNIT2_BACKROW_TOPFLOOR,Air,AIR LOOP INLET NODE_UNIT2_BACKROW_TOPFLOOR,AIR LOOP OUTLET NODE_UNIT2_BACKROW_TOPFLOOR
 Branch List,18,AIR LOOP BRANCHES_UNIT3_BACKROW_TOPFLOOR,CENTRAL SYSTEM_UNIT3_BACKROW_TOPFLOOR,Air,1
   Branch,1,AIR LOOP MAIN BRANCH_UNIT3_BACKROW_TOPFLOOR,CENTRAL SYSTEM_UNIT3_BACKROW_TOPFLOOR,Air,AIR LOOP INLET NODE_UNIT3_BACKROW_TOPFLOOR,AIR LOOP OUTLET NODE_UNIT3_BACKROW_TOPFLOOR
 Branch List,19,DHW SUPPLY BRANCHES_UNIT1_FRONTROW_BOTTOMFLOOR,DHW LOOP_UNIT1_FRONTROW_BOTTOMFLOOR,Plant Supply,3
   Branch,1,MAINS INLET BRANCH_UNIT1_FRONTROW_BOTTOMFLOOR,DHW LOOP_UNIT1_FRONTROW_BOTTOMFLOOR,Plant Supply,MAINS INLET NODE_UNIT1_FRONTROW_BOTTOMFLOOR,MAINS PRESSURE OUTLET NODE_UNIT1_FRONTROW_BOTTOMFLOOR
   Branch,2,WATER HEATER BRANCH_UNIT1_FRONTROW_BOTTOMFLOOR,DHW LOOP_UNIT1_FRONTROW_BOTTOMFLOOR,Plant Supply,WATER HEATER USE INLET NODE_UNIT1_FRONTROW_BOTTOMFLOOR,WATER HEATER USE OUTLET NODE_UNIT1_FRONTROW_BOTTOMFLOOR
   Branch,3,DHW SUPPLY OUTLET BRANCH_UNIT1_FRONTROW_BOTTOMFLOOR,DHW LOOP_UNIT1_FRONTROW_BOTTOMFLOOR,Plant Supply,DHW SUPPLY OUTLET PIPE INLET NODE_UNIT1_FRONTROW_BOTTOMFLOOR,DHW SUPPLY OUTLET NODE_UNIT1_FRONTROW_BOTTOMFLOOR
 Branch List,20,DHW DEMAND BRANCHES_UNIT1_FRONTROW_BOTTOMFLOOR,DHW LOOP_UNIT1_FRONTROW_BOTTOMFLOOR,Plant Demand,7
   Branch,1,DHW DEMAND INLET BRANCH_UNIT1_FRONTROW_BOTTOMFLOOR,DHW LOOP_UNIT1_FRONTROW_BOTTOMFLOOR,Plant Demand,DHW DEMAND INLET NODE_UNIT1_FRONTROW_BOTTOMFLOOR,DHW DEMAND INLET PIPE OUTLET NODE_UNIT1_FRONTROW_BOTTOMFLOOR
   Branch,2,WATER SINK BRANCH_UNIT1_FRONTROW_BOTTOMFLOOR,DHW LOOP_UNIT1_FRONTROW_BOTTOMFLOOR,Plant Demand,WATER SINK INLET NODE_UNIT1_FRONTROW_BOTTOMFLOOR,WATER SINK OUTLET NODE_UNIT1_FRONTROW_BOTTOMFLOOR
   Branch,3,WATER SHOWER BRANCH_UNIT1_FRONTROW_BOTTOMFLOOR,DHW LOOP_UNIT1_FRONTROW_BOTTOMFLOOR,Plant Demand,WATER SHOWER INLET NODE_UNIT1_FRONTROW_BOTTOMFLOOR,WATER SHOWER OUTLET NODE_UNIT1_FRONTROW_BOTTOMFLOOR
   Branch,4,WATER CLOTHESWASHER BRANCH_UNIT1_FRONTROW_BOTTOMFLOOR,DHW LOOP_UNIT1_FRONTROW_BOTTOMFLOOR,Plant Demand,WATER CLOTHESWASHER INLET NODE_UNIT1_FRONTROW_BOTTOMFLOOR,WATER CLOTHESWASHER OUTLET NODE_UNIT1_FRONTROW_BOTTOMFLOOR
   Branch,5,WATER DISHWASHER BRANCH_UNIT1_FRONTROW_BOTTOMFLOOR,DHW LOOP_UNIT1_FRONTROW_BOTTOMFLOOR,Plant Demand,WATER DISHWASHER INLET NODE_UNIT1_FRONTROW_BOTTOMFLOOR,WATER DISHWASHER OUTLET NODE_UNIT1_FRONTROW_BOTTOMFLOOR
   Branch,6,WATER BATH BRANCH_UNIT1_FRONTROW_BOTTOMFLOOR,DHW LOOP_UNIT1_FRONTROW_BOTTOMFLOOR,Plant Demand,WATER BATH INLET NODE_UNIT1_FRONTROW_BOTTOMFLOOR,WATER BATH OUTLET NODE_UNIT1_FRONTROW_BOTTOMFLOOR
   Branch,7,MAINS MAKEUP BRANCH_UNIT1_FRONTROW_BOTTOMFLOOR,DHW LOOP_UNIT1_FRONTROW_BOTTOMFLOOR,Plant Demand,MAINS MAKEUP PIPE INLET NODE_UNIT1_FRONTROW_BOTTOMFLOOR,MAINS MAKEUP NODE_UNIT1_FRONTROW_BOTTOMFLOOR
 Branch List,21,DHW SUPPLY BRANCHES_UNIT2_FRONTROW_BOTTOMFLOOR,DHW LOOP_UNIT2_FRONTROW_BOTTOMFLOOR,Plant Supply,3
   Branch,1,MAINS INLET BRANCH_UNIT2_FRONTROW_BOTTOMFLOOR,DHW LOOP_UNIT2_FRONTROW_BOTTOMFLOOR,Plant Supply,MAINS INLET NODE_UNIT2_FRONTROW_BOTTOMFLOOR,MAINS PRESSURE OUTLET NODE_UNIT2_FRONTROW_BOTTOMFLOOR
   Branch,2,WATER HEATER BRANCH_UNIT2_FRONTROW_BOTTOMFLOOR,DHW LOOP_UNIT2_FRONTROW_BOTTOMFLOOR,Plant Supply,WATER HEATER USE INLET NODE_UNIT2_FRONTROW_BOTTOMFLOOR,WATER HEATER USE OUTLET NODE_UNIT2_FRONTROW_BOTTOMFLOOR
   Branch,3,DHW SUPPLY OUTLET BRANCH_UNIT2_FRONTROW_BOTTOMFLOOR,DHW LOOP_UNIT2_FRONTROW_BOTTOMFLOOR,Plant Supply,DHW SUPPLY OUTLET PIPE INLET NODE_UNIT2_FRONTROW_BOTTOMFLOOR,DHW SUPPLY OUTLET NODE_UNIT2_FRONTROW_BOTTOMFLOOR
 Branch List,22,DHW DEMAND BRANCHES_UNIT2_FRONTROW_BOTTOMFLOOR,DHW LOOP_UNIT2_FRONTROW_BOTTOMFLOOR,Plant Demand,7
   Branch,1,DHW DEMAND INLET BRANCH_UNIT2_FRONTROW_BOTTOMFLOOR,DHW LOOP_UNIT2_FRONTROW_BOTTOMFLOOR,Plant Demand,DHW DEMAND INLET NODE_UNIT2_FRONTROW_BOTTOMFLOOR,DHW DEMAND INLET PIPE OUTLET NODE_UNIT2_FRONTROW_BOTTOMFLOOR
   Branch,2,WATER SINK BRANCH_UNIT2_FRONTROW_BOTTOMFLOOR,DHW LOOP_UNIT2_FRONTROW_BOTTOMFLOOR,Plant Demand,WATER SINK INLET NODE_UNIT2_FRONTROW_BOTTOMFLOOR,WATER SINK OUTLET NODE_UNIT2_FRONTROW_BOTTOMFLOOR
   Branch,3,WATER SHOWER BRANCH_UNIT2_FRONTROW_BOTTOMFLOOR,DHW LOOP_UNIT2_FRONTROW_BOTTOMFLOOR,Plant Demand,WATER SHOWER INLET NODE_UNIT2_FRONTROW_BOTTOMFLOOR,WATER SHOWER OUTLET NODE_UNIT2_FRONTROW_BOTTOMFLOOR
   Branch,4,WATER CLOTHESWASHER BRANCH_UNIT2_FRONTROW_BOTTOMFLOOR,DHW LOOP_UNIT2_FRONTROW_BOTTOMFLOOR,Plant Demand,WATER CLOTHESWASHER INLET NODE_UNIT2_FRONTROW_BOTTOMFLOOR,WATER CLOTHESWASHER OUTLET NODE_UNIT2_FRONTROW_BOTTOMFLOOR
   Branch,5,WATER DISHWASHER BRANCH_UNIT2_FRONTROW_BOTTOMFLOOR,DHW LOOP_UNIT2_FRONTROW_BOTTOMFLOOR,Plant Demand,WATER DISHWASHER INLET NODE_UNIT2_FRONTROW_BOTTOMFLOOR,WATER DISHWASHER OUTLET NODE_UNIT2_FRONTROW_BOTTOMFLOOR
   Branch,6,WATER BATH BRANCH_UNIT2_FRONTROW_BOTTOMFLOOR,DHW LOOP_UNIT2_FRONTROW_BOTTOMFLOOR,Plant Demand,WATER BATH INLET NODE_UNIT2_FRONTROW_BOTTOMFLOOR,WATER BATH OUTLET NODE_UNIT2_FRONTROW_BOTTOMFLOOR
   Branch,7,MAINS MAKEUP BRANCH_UNIT2_FRONTROW_BOTTOMFLOOR,DHW LOOP_UNIT2_FRONTROW_BOTTOMFLOOR,Plant Demand,MAINS MAKEUP PIPE INLET NODE_UNIT2_FRONTROW_BOTTOMFLOOR,MAINS MAKEUP NODE_UNIT2_FRONTROW_BOTTOMFLOOR
 Branch List,23,DHW SUPPLY BRANCHES_UNIT3_FRONTROW_BOTTOMFLOOR,DHW LOOP_UNIT3_FRONTROW_BOTTOMFLOOR,Plant Supply,3
   Branch,1,MAINS INLET BRANCH_UNIT3_FRONTROW_BOTTOMFLOOR,DHW LOOP_UNIT3_FRONTROW_BOTTOMFLOOR,Plant Supply,MAINS INLET NODE_UNIT3_FRONTROW_BOTTOMFLOOR,MAINS PRESSURE OUTLET NODE_UNIT3_FRONTROW_BOTTOMFLOOR
   Branch,2,WATER HEATER BRANCH_UNIT3_FRONTROW_BOTTOMFLOOR,DHW LOOP_UNIT3_FRONTROW_BOTTOMFLOOR,Plant Supply,WATER HEATER USE INLET NODE_UNIT3_FRONTROW_BOTTOMFLOOR,WATER HEATER USE OUTLET NODE_UNIT3_FRONTROW_BOTTOMFLOOR
   Branch,3,DHW SUPPLY OUTLET BRANCH_UNIT3_FRONTROW_BOTTOMFLOOR,DHW LOOP_UNIT3_FRONTROW_BOTTOMFLOOR,Plant Supply,DHW SUPPLY OUTLET PIPE INLET NODE_UNIT3_FRONTROW_BOTTOMFLOOR,DHW SUPPLY OUTLET NODE_UNIT3_FRONTROW_BOTTOMFLOOR
 Branch List,24,DHW DEMAND BRANCHES_UNIT3_FRONTROW_BOTTOMFLOOR,DHW LOOP_UNIT3_FRONTROW_BOTTOMFLOOR,Plant Demand,7
   Branch,1,DHW DEMAND INLET BRANCH_UNIT3_FRONTROW_BOTTOMFLOOR,DHW LOOP_UNIT3_FRONTROW_BOTTOMFLOOR,Plant Demand,DHW DEMAND INLET NODE_UNIT3_FRONTROW_BOTTOMFLOOR,DHW DEMAND INLET PIPE OUTLET NODE_UNIT3_FRONTROW_BOTTOMFLOOR
   Branch,2,WATER SINK BRANCH_UNIT3_FRONTROW_BOTTOMFLOOR,DHW LOOP_UNIT3_FRONTROW_BOTTOMFLOOR,Plant Demand,WATER SINK INLET NODE_UNIT3_FRONTROW_BOTTOMFLOOR,WATER SINK OUTLET NODE_UNIT3_FRONTROW_BOTTOMFLOOR
   Branch,3,WATER SHOWER BRANCH_UNIT3_FRONTROW_BOTTOMFLOOR,DHW LOOP_UNIT3_FRONTROW_BOTTOMFLOOR,Plant Demand,WATER SHOWER INLET NODE_UNIT3_FRONTROW_BOTTOMFLOOR,WATER SHOWER OUTLET NODE_UNIT3_FRONTROW_BOTTOMFLOOR
   Branch,4,WATER CLOTHESWASHER BRANCH_UNIT3_FRONTROW_BOTTOMFLOOR,DHW LOOP_UNIT3_FRONTROW_BOTTOMFLOOR,Plant Demand,WATER CLOTHESWASHER INLET NODE_UNIT3_FRONTROW_BOTTOMFLOOR,WATER CLOTHESWASHER OUTLET NODE_UNIT3_FRONTROW_BOTTOMFLOOR
   Branch,5,WATER DISHWASHER BRANCH_UNIT3_FRONTROW_BOTTOMFLOOR,DHW LOOP_UNIT3_FRONTROW_BOTTOMFLOOR,Plant Demand,WATER DISHWASHER INLET NODE_UNIT3_FRONTROW_BOTTOMFLOOR,WATER DISHWASHER OUTLET NODE_UNIT3_FRONTROW_BOTTOMFLOOR
   Branch,6,WATER BATH BRANCH_UNIT3_FRONTROW_BOTTOMFLOOR,DHW LOOP_UNIT3_FRONTROW_BOTTOMFLOOR,Plant Demand,WATER BATH INLET NODE_UNIT3_FRONTROW_BOTTOMFLOOR,WATER BATH OUTLET NODE_UNIT3_FRONTROW_BOTTOMFLOOR
   Branch,7,MAINS MAKEUP BRANCH_UNIT3_FRONTROW_BOTTOMFLOOR,DHW LOOP_UNIT3_FRONTROW_BOTTOMFLOOR,Plant Demand,MAINS MAKEUP PIPE INLET NODE_UNIT3_FRONTROW_BOTTOMFLOOR,MAINS MAKEUP NODE_UNIT3_FRONTROW_BOTTOMFLOOR
 Branch List,25,DHW SUPPLY BRANCHES_UNIT1_BACKROW_BOTTOMFLOOR,DHW LOOP_UNIT1_BACKROW_BOTTOMFLOOR,Plant Supply,3
   Branch,1,MAINS INLET BRANCH_UNIT1_BACKROW_BOTTOMFLOOR,DHW LOOP_UNIT1_BACKROW_BOTTOMFLOOR,Plant Supply,MAINS INLET NODE_UNIT1_BACKROW_BOTTOMFLOOR,MAINS PRESSURE OUTLET NODE_UNIT1_BACKROW_BOTTOMFLOOR
   Branch,2,WATER HEATER BRANCH_UNIT1_BACKROW_BOTTOMFLOOR,DHW LOOP_UNIT1_BACKROW_BOTTOMFLOOR,Plant Supply,WATER HEATER USE INLET NODE_UNIT1_BACKROW_BOTTOMFLOOR,WATER HEATER USE OUTLET NODE_UNIT1_BACKROW_BOTTOMFLOOR
   Branch,3,DHW SUPPLY OUTLET BRANCH_UNIT1_BACKROW_BOTTOMFLOOR,DHW LOOP_UNIT1_BACKROW_BOTTOMFLOOR,Plant Supply,DHW SUPPLY OUTLET PIPE INLET NODE_UNIT1_BACKROW_BOTTOMFLOOR,DHW SUPPLY OUTLET NODE_UNIT1_BACKROW_BOTTOMFLOOR
 Branch List,26,DHW DEMAND BRANCHES_UNIT1_BACKROW_BOTTOMFLOOR,DHW LOOP_UNIT1_BACKROW_BOTTOMFLOOR,Plant Demand,7
   Branch,1,DHW DEMAND INLET BRANCH_UNIT1_BACKROW_BOTTOMFLOOR,DHW LOOP_UNIT1_BACKROW_BOTTOMFLOOR,Plant Demand,DHW DEMAND INLET NODE_UNIT1_BACKROW_BOTTOMFLOOR,DHW DEMAND INLET PIPE OUTLET NODE_UNIT1_BACKROW_BOTTOMFLOOR
   Branch,2,WATER SINK BRANCH_UNIT1_BACKROW_BOTTOMFLOOR,DHW LOOP_UNIT1_BACKROW_BOTTOMFLOOR,Plant Demand,WATER SINK INLET NODE_UNIT1_BACKROW_BOTTOMFLOOR,WATER SINK OUTLET NODE_UNIT1_BACKROW_BOTTOMFLOOR
   Branch,3,WATER SHOWER BRANCH_UNIT1_BACKROW_BOTTOMFLOOR,DHW LOOP_UNIT1_BACKROW_BOTTOMFLOOR,Plant Demand,WATER SHOWER INLET NODE_UNIT1_BACKROW_BOTTOMFLOOR,WATER SHOWER OUTLET NODE_UNIT1_BACKROW_BOTTOMFLOOR
   Branch,4,WATER CLOTHESWASHER BRANCH_UNIT1_BACKROW_BOTTOMFLOOR,DHW LOOP_UNIT1_BACKROW_BOTTOMFLOOR,Plant Demand,WATER CLOTHESWASHER INLET NODE_UNIT1_BACKROW_BOTTOMFLOOR,WATER CLOTHESWASHER OUTLET NODE_UNIT1_BACKROW_BOTTOMFLOOR
   Branch,5,WATER DISHWASHER BRANCH_UNIT1_BACKROW_BOTTOMFLOOR,DHW LOOP_UNIT1_BACKROW_BOTTOMFLOOR,Plant Demand,WATER DISHWASHER INLET NODE_UNIT1_BACKROW_BOTTOMFLOOR,WATER DISHWASHER OUTLET NODE_UNIT1_BACKROW_BOTTOMFLOOR
   Branch,6,WATER BATH BRANCH_UNIT1_BACKROW_BOTTOMFLOOR,DHW LOOP_UNIT1_BACKROW_BOTTOMFLOOR,Plant Demand,WATER BATH INLET NODE_UNIT1_BACKROW_BOTTOMFLOOR,WATER BATH OUTLET NODE_UNIT1_BACKROW_BOTTOMFLOOR
   Branch,7,MAINS MAKEUP BRANCH_UNIT1_BACKROW_BOTTOMFLOOR,DHW LOOP_UNIT1_BACKROW_BOTTOMFLOOR,Plant Demand,MAINS MAKEUP PIPE INLET NODE_UNIT1_BACKROW_BOTTOMFLOOR,MAINS MAKEUP NODE_UNIT1_BACKROW_BOTTOMFLOOR
 Branch List,27,DHW SUPPLY BRANCHES_UNIT2_BACKROW_BOTTOMFLOOR,DHW LOOP_UNIT2_BACKROW_BOTTOMFLOOR,Plant Supply,3
   Branch,1,MAINS INLET BRANCH_UNIT2_BACKROW_BOTTOMFLOOR,DHW LOOP_UNIT2_BACKROW_BOTTOMFLOOR,Plant Supply,MAINS INLET NODE_UNIT2_BACKROW_BOTTOMFLOOR,MAINS PRESSURE OUTLET NODE_UNIT2_BACKROW_BOTTOMFLOOR
   Branch,2,WATER HEATER BRANCH_UNIT2_BACKROW_BOTTOMFLOOR,DHW LOOP_UNIT2_BACKROW_BOTTOMFLOOR,Plant Supply,WATER HEATER USE INLET NODE_UNIT2_BACKROW_BOTTOMFLOOR,WATER HEATER USE OUTLET NODE_UNIT2_BACKROW_BOTTOMFLOOR
   Branch,3,DHW SUPPLY OUTLET BRANCH_UNIT2_BACKROW_BOTTOMFLOOR,DHW LOOP_UNIT2_BACKROW_BOTTOMFLOOR,Plant Supply,DHW SUPPLY OUTLET PIPE INLET NODE_UNIT2_BACKROW_BOTTOMFLOOR,DHW SUPPLY OUTLET NODE_UNIT2_BACKROW_BOTTOMFLOOR
 Branch List,28,DHW DEMAND BRANCHES_UNIT2_BACKROW_BOTTOMFLOOR,DHW LOOP_UNIT2_BACKROW_BOTTOMFLOOR,Plant Demand,7
   Branch,1,DHW DEMAND INLET BRANCH_UNIT2_BACKROW_BOTTOMFLOOR,DHW LOOP_UNIT2_BACKROW_BOTTOMFLOOR,Plant Demand,DHW DEMAND INLET NODE_UNIT2_BACKROW_BOTTOMFLOOR,DHW DEMAND INLET PIPE OUTLET NODE_UNIT2_BACKROW_BOTTOMFLOOR
   Branch,2,WATER SINK BRANCH_UNIT2_BACKROW_BOTTOMFLOOR,DHW LOOP_UNIT2_BACKROW_BOTTOMFLOOR,Plant Demand,WATER SINK INLET NODE_UNIT2_BACKROW_BOTTOMFLOOR,WATER SINK OUTLET NODE_UNIT2_BACKROW_BOTTOMFLOOR
   Branch,3,WATER SHOWER BRANCH_UNIT2_BACKROW_BOTTOMFLOOR,DHW LOOP_UNIT2_BACKROW_BOTTOMFLOOR,Plant Demand,WATER SHOWER INLET NODE_UNIT2_BACKROW_BOTTOMFLOOR,WATER SHOWER OUTLET NODE_UNIT2_BACKROW_BOTTOMFLOOR
   Branch,4,WATER CLOTHESWASHER BRANCH_UNIT2_BACKROW_BOTTOMFLOOR,DHW LOOP_UNIT2_BACKROW_BOTTOMFLOOR,Plant Demand,WATER CLOTHESWASHER INLET NODE_UNIT2_BACKROW_BOTTOMFLOOR,WATER CLOTHESWASHER OUTLET NODE_UNIT2_BACKROW_BOTTOMFLOOR
   Branch,5,WATER DISHWASHER BRANCH_UNIT2_BACKROW_BOTTOMFLOOR,DHW LOOP_UNIT2_BACKROW_BOTTOMFLOOR,Plant Demand,WATER DISHWASHER INLET NODE_UNIT2_BACKROW_BOTTOMFLOOR,WATER DISHWASHER OUTLET NODE_UNIT2_BACKROW_BOTTOMFLOOR
   Branch,6,WATER BATH BRANCH_UNIT2_BACKROW_BOTTOMFLOOR,DHW LOOP_UNIT2_BACKROW_BOTTOMFLOOR,Plant Demand,WATER BATH INLET NODE_UNIT2_BACKROW_BOTTOMFLOOR,WATER BATH OUTLET NODE_UNIT2_BACKROW_BOTTOMFLOOR
   Branch,7,MAINS MAKEUP BRANCH_UNIT2_BACKROW_BOTTOMFLOOR,DHW LOOP_UNIT2_BACKROW_BOTTOMFLOOR,Plant Demand,MAINS MAKEUP PIPE INLET NODE_UNIT2_BACKROW_BOTTOMFLOOR,MAINS MAKEUP NODE_UNIT2_BACKROW_BOTTOMFLOOR
 Branch List,29,DHW SUPPLY BRANCHES_UNIT3_BACKROW_BOTTOMFLOOR,DHW LOOP_UNIT3_BACKROW_BOTTOMFLOOR,Plant Supply,3
   Branch,1,MAINS INLET BRANCH_UNIT3_BACKROW_BOTTOMFLOOR,DHW LOOP_UNIT3_BACKROW_BOTTOMFLOOR,Plant Supply,MAINS INLET NODE_UNIT3_BACKROW_BOTTOMFLOOR,MAINS PRESSURE OUTLET NODE_UNIT3_BACKROW_BOTTOMFLOOR
   Branch,2,WATER HEATER BRANCH_UNIT3_BACKROW_BOTTOMFLOOR,DHW LOOP_UNIT3_BACKROW_BOTTOMFLOOR,Plant Supply,WATER HEATER USE INLET NODE_UNIT3_BACKROW_BOTTOMFLOOR,WATER HEATER USE OUTLET NODE_UNIT3_BACKROW_BOTTOMFLOOR
   Branch,3,DHW SUPPLY OUTLET BRANCH_UNIT3_BACKROW_BOTTOMFLOOR,DHW LOOP_UNIT3_BACKROW_BOTTOMFLOOR,Plant Supply,DHW SUPPLY OUTLET PIPE INLET NODE_UNIT3_BACKROW_BOTTOMFLOOR,DHW SUPPLY OUTLET NODE_UNIT3_BACKROW_BOTTOMFLOOR
 Branch List,30,DHW DEMAND BRANCHES_UNIT3_BACKROW_BOTTOMFLOOR,DHW LOOP_UNIT3_BACKROW_BOTTOMFLOOR,Plant Demand,7
   Branch,1,DHW DEMAND INLET BRANCH_UNIT3_BACKROW_BOTTOMFLOOR,DHW LOOP_UNIT3_BACKROW_BOTTOMFLOOR,Plant Demand,DHW DEMAND INLET NODE_UNIT3_BACKROW_BOTTOMFLOOR,DHW DEMAND INLET PIPE OUTLET NODE_UNIT3_BACKROW_BOTTOMFLOOR
   Branch,2,WATER SINK BRANCH_UNIT3_BACKROW_BOTTOMFLOOR,DHW LOOP_UNIT3_BACKROW_BOTTOMFLOOR,Plant Demand,WATER SINK INLET NODE_UNIT3_BACKROW_BOTTOMFLOOR,WATER SINK OUTLET NODE_UNIT3_BACKROW_BOTTOMFLOOR
   Branch,3,WATER SHOWER BRANCH_UNIT3_BACKROW_BOTTOMFLOOR,DHW LOOP_UNIT3_BACKROW_BOTTOMFLOOR,Plant Demand,WATER SHOWER INLET NODE_UNIT3_BACKROW_BOTTOMFLOOR,WATER SHOWER OUTLET NODE_UNIT3_BACKROW_BOTTOMFLOOR
   Branch,4,WATER CLOTHESWASHER BRANCH_UNIT3_BACKROW_BOTTOMFLOOR,DHW LOOP_UNIT3_BACKROW_BOTTOMFLOOR,Plant Demand,WATER CLOTHESWASHER INLET NODE_UNIT3_BACKROW_BOTTOMFLOOR,WATER CLOTHESWASHER OUTLET NODE_UNIT3_BACKROW_BOTTOMFLOOR
   Branch,5,WATER DISHWASHER BRANCH_UNIT3_BACKROW_BOTTOMFLOOR,DHW LOOP_UNIT3_BACKROW_BOTTOMFLOOR,Plant Demand,WATER DISHWASHER INLET NODE_UNIT3_BACKROW_BOTTOMFLOOR,WATER DISHWASHER OUTLET NODE_UNIT3_BACKROW_BOTTOMFLOOR
   Branch,6,WATER BATH BRANCH_UNIT3_BACKROW_BOTTOMFLOOR,DHW LOOP_UNIT3_BACKROW_BOTTOMFLOOR,Plant Demand,WATER BATH INLET NODE_UNIT3_BACKROW_BOTTOMFLOOR,WATER BATH OUTLET NODE_UNIT3_BACKROW_BOTTOMFLOOR
   Branch,7,MAINS MAKEUP BRANCH_UNIT3_BACKROW_BOTTOMFLOOR,DHW LOOP_UNIT3_BACKROW_BOTTOMFLOOR,Plant Demand,MAINS MAKEUP PIPE INLET NODE_UNIT3_BACKROW_BOTTOMFLOOR,MAINS MAKEUP NODE_UNIT3_BACKROW_BOTTOMFLOOR
 Branch List,31,DHW SUPPLY BRANCHES_UNIT1_FRONTROW_MIDDLEFLOOR,DHW LOOP_UNIT1_FRONTROW_MIDDLEFLOOR,Plant Supply,3
   Branch,1,MAINS INLET BRANCH_UNIT1_FRONTROW_MIDDLEFLOOR,DHW LOOP_UNIT1_FRONTROW_MIDDLEFLOOR,Plant Supply,MAINS INLET NODE_UNIT1_FRONTROW_MIDDLEFLOOR,MAINS PRESSURE OUTLET NODE_UNIT1_FRONTROW_MIDDLEFLOOR
   Branch,2,WATER HEATER BRANCH_UNIT1_FRONTROW_MIDDLEFLOOR,DHW LOOP_UNIT1_FRONTROW_MIDDLEFLOOR,Plant Supply,WATER HEATER USE INLET NODE_UNIT1_FRONTROW_MIDDLEFLOOR,WATER HEATER USE OUTLET NODE_UNIT1_FRONTROW_MIDDLEFLOOR
   Branch,3,DHW SUPPLY OUTLET BRANCH_UNIT1_FRONTROW_MIDDLEFLOOR,DHW LOOP_UNIT1_FRONTROW_MIDDLEFLOOR,Plant Supply,DHW SUPPLY OUTLET PIPE INLET NODE_UNIT1_FRONTROW_MIDDLEFLOOR,DHW SUPPLY OUTLET NODE_UNIT1_FRONTROW_MIDDLEFLOOR
 Branch List,32,DHW DEMAND BRANCHES_UNIT1_FRONTROW_MIDDLEFLOOR,DHW LOOP_UNIT1_FRONTROW_MIDDLEFLOOR,Plant Demand,7
   Branch,1,DHW DEMAND INLET BRANCH_UNIT1_FRONTROW_MIDDLEFLOOR,DHW LOOP_UNIT1_FRONTROW_MIDDLEFLOOR,Plant Demand,DHW DEMAND INLET NODE_UNIT1_FRONTROW_MIDDLEFLOOR,DHW DEMAND INLET PIPE OUTLET NODE_UNIT1_FRONTROW_MIDDLEFLOOR
   Branch,2,WATER SINK BRANCH_UNIT1_FRONTROW_MIDDLEFLOOR,DHW LOOP_UNIT1_FRONTROW_MIDDLEFLOOR,Plant Demand,WATER SINK INLET NODE_UNIT1_FRONTROW_MIDDLEFLOOR,WATER SINK OUTLET NODE_UNIT1_FRONTROW_MIDDLEFLOOR
   Branch,3,WATER SHOWER BRANCH_UNIT1_FRONTROW_MIDDLEFLOOR,DHW LOOP_UNIT1_FRONTROW_MIDDLEFLOOR,Plant Demand,WATER SHOWER INLET NODE_UNIT1_FRONTROW_MIDDLEFLOOR,WATER SHOWER OUTLET NODE_UNIT1_FRONTROW_MIDDLEFLOOR
   Branch,4,WATER CLOTHESWASHER BRANCH_UNIT1_FRONTROW_MIDDLEFLOOR,DHW LOOP_UNIT1_FRONTROW_MIDDLEFLOOR,Plant Demand,WATER CLOTHESWASHER INLET NODE_UNIT1_FRONTROW_MIDDLEFLOOR,WATER CLOTHESWASHER OUTLET NODE_UNIT1_FRONTROW_MIDDLEFLOOR
   Branch,5,WATER DISHWASHER BRANCH_UNIT1_FRONTROW_MIDDLEFLOOR,DHW LOOP_UNIT1_FRONTROW_MIDDLEFLOOR,Plant Demand,WATER DISHWASHER INLET NODE_UNIT1_FRONTROW_MIDDLEFLOOR,WATER DISHWASHER OUTLET NODE_UNIT1_FRONTROW_MIDDLEFLOOR
   Branch,6,WATER BATH BRANCH_UNIT1_FRONTROW_MIDDLEFLOOR,DHW LOOP_UNIT1_FRONTROW_MIDDLEFLOOR,Plant Demand,WATER BATH INLET NODE_UNIT1_FRONTROW_MIDDLEFLOOR,WATER BATH OUTLET NODE_UNIT1_FRONTROW_MIDDLEFLOOR
   Branch,7,MAINS MAKEUP BRANCH_UNIT1_FRONTROW_MIDDLEFLOOR,DHW LOOP_UNIT1_FRONTROW_MIDDLEFLOOR,Plant Demand,MAINS MAKEUP PIPE INLET NODE_UNIT1_FRONTROW_MIDDLEFLOOR,MAINS MAKEUP NODE_UNIT1_FRONTROW_MIDDLEFLOOR
 Branch List,33,DHW SUPPLY BRANCHES_UNIT2_FRONTROW_MIDDLEFLOOR,DHW LOOP_UNIT2_FRONTROW_MIDDLEFLOOR,Plant Supply,3
   Branch,1,MAINS INLET BRANCH_UNIT2_FRONTROW_MIDDLEFLOOR,DHW LOOP_UNIT2_FRONTROW_MIDDLEFLOOR,Plant Supply,MAINS INLET NODE_UNIT2_FRONTROW_MIDDLEFLOOR,MAINS PRESSURE OUTLET NODE_UNIT2_FRONTROW_MIDDLEFLOOR
   Branch,2,WATER HEATER BRANCH_UNIT2_FRONTROW_MIDDLEFLOOR,DHW LOOP_UNIT2_FRONTROW_MIDDLEFLOOR,Plant Supply,WATER HEATER USE INLET NODE_UNIT2_FRONTROW_MIDDLEFLOOR,WATER HEATER USE OUTLET NODE_UNIT2_FRONTROW_MIDDLEFLOOR
   Branch,3,DHW SUPPLY OUTLET BRANCH_UNIT2_FRONTROW_MIDDLEFLOOR,DHW LOOP_UNIT2_FRONTROW_MIDDLEFLOOR,Plant Supply,DHW SUPPLY OUTLET PIPE INLET NODE_UNIT2_FRONTROW_MIDDLEFLOOR,DHW SUPPLY OUTLET NODE_UNIT2_FRONTROW_MIDDLEFLOOR
 Branch List,34,DHW DEMAND BRANCHES_UNIT2_FRONTROW_MIDDLEFLOOR,DHW LOOP_UNIT2_FRONTROW_MIDDLEFLOOR,Plant Demand,7
   Branch,1,DHW DEMAND INLET BRANCH_UNIT2_FRONTROW_MIDDLEFLOOR,DHW LOOP_UNIT2_FRONTROW_MIDDLEFLOOR,Plant Demand,DHW DEMAND INLET NODE_UNIT2_FRONTROW_MIDDLEFLOOR,DHW DEMAND INLET PIPE OUTLET NODE_UNIT2_FRONTROW_MIDDLEFLOOR
   Branch,2,WATER SINK BRANCH_UNIT2_FRONTROW_MIDDLEFLOOR,DHW LOOP_UNIT2_FRONTROW_MIDDLEFLOOR,Plant Demand,WATER SINK INLET NODE_UNIT2_FRONTROW_MIDDLEFLOOR,WATER SINK OUTLET NODE_UNIT2_FRONTROW_MIDDLEFLOOR
   Branch,3,WATER SHOWER BRANCH_UNIT2_FRONTROW_MIDDLEFLOOR,DHW LOOP_UNIT2_FRONTROW_MIDDLEFLOOR,Plant Demand,WATER SHOWER INLET NODE_UNIT2_FRONTROW_MIDDLEFLOOR,WATER SHOWER OUTLET NODE_UNIT2_FRONTROW_MIDDLEFLOOR
   Branch,4,WATER CLOTHESWASHER BRANCH_UNIT2_FRONTROW_MIDDLEFLOOR,DHW LOOP_UNIT2_FRONTROW_MIDDLEFLOOR,Plant Demand,WATER CLOTHESWASHER INLET NODE_UNIT2_FRONTROW_MIDDLEFLOOR,WATER CLOTHESWASHER OUTLET NODE_UNIT2_FRONTROW_MIDDLEFLOOR
[...]
 Non-Parent Node Connection,ZONE INLET NODE_UNIT2_FRONTROW_MIDDLEFLOOR ATINLET,AIRTERMINAL:SINGLEDUCT:CONSTANTVOLUME:NOREHEAT,ZONEDIRECTAIR_UNIT2_FRONTROW_MIDDLEFLOOR,Inlet,1
 Non-Parent Node Connection,ZONE INLET NODE_UNIT2_FRONTROW_MIDDLEFLOOR,AIRTERMINAL:SINGLEDUCT:CONSTANTVOLUME:NOREHEAT,ZONEDIRECTAIR_UNIT2_FRONTROW_MIDDLEFLOOR,Outlet,1
 Non-Parent Node Connection,ZONE INLET NODE_UNIT3_FRONTROW_MIDDLEFLOOR ATINLET,AIRTERMINAL:SINGLEDUCT:CONSTANTVOLUME:NOREHEAT,ZONEDIRECTAIR_UNIT3_FRONTROW_MIDDLEFLOOR,Inlet,1
 Non-Parent Node Connection,ZONE INLET NODE_UNIT3_FRONTROW_MIDDLEFLOOR,AIRTERMINAL:SINGLEDUCT:CONSTANTVOLUME:NOREHEAT,ZONEDIRECTAIR_UNIT3_FRONTROW_MIDDLEFLOOR,Outlet,1
 Non-Parent Node Connection,ZONE INLET NODE_UNIT1_BACKROW_MIDDLEFLOOR ATINLET,AIRTERMINAL:SINGLEDUCT:CONSTANTVOLUME:NOREHEAT,ZONEDIRECTAIR_UNIT1_BACKROW_MIDDLEFLOOR,Inlet,1
 Non-Parent Node Connection,ZONE INLET NODE_UNIT1_BACKROW_MIDDLEFLOOR,AIRTERMINAL:SINGLEDUCT:CONSTANTVOLUME:NOREHEAT,ZONEDIRECTAIR_UNIT1_BACKROW_MIDDLEFLOOR,Outlet,1
 Non-Parent Node Connection,ZONE INLET NODE_UNIT2_BACKROW_MIDDLEFLOOR ATINLET,AIRTERMINAL:SINGLEDUCT:CONSTANTVOLUME:NOREHEAT,ZONEDIRECTAIR_UNIT2_BACKROW_MIDDLEFLOOR,Inlet,1
 Non-Parent Node Connection,ZONE INLET NODE_UNIT2_BACKROW_MIDDLEFLOOR,AIRTERMINAL:SINGLEDUCT:CONSTANTVOLUME:NOREHEAT,ZONEDIRECTAIR_UNIT2_BACKROW_MIDDLEFLOOR,Outlet,1
 Non-Parent Node Connection,ZONE INLET NODE_UNIT3_BACKROW_MIDDLEFLOOR ATINLET,AIRTERMINAL:SINGLEDUCT:CONSTANTVOLUME:NOREHEAT,ZONEDIRECTAIR_UNIT3_BACKROW_MIDDLEFLOOR,Inlet,1
 Non-Parent Node Connection,ZONE INLET NODE_UNIT3_BACKROW_MIDDLEFLOOR,AIRTERMINAL:SINGLEDUCT:CONSTANTVOLUME:NOREHEAT,ZONEDIRECTAIR_UNIT3_BACKROW_MIDDLEFLOOR,Outlet,1
 Non-Parent Node Connection,ZONE INLET NODE_UNIT1_FRONTROW_TOPFLOOR ATINLET,AIRTERMINAL:SINGLEDUCT:CONSTANTVOLUME:NOREHEAT,ZONEDIRECTAIR_UNIT1_FRONTROW_TOPFLOOR,Inlet,1
 Non-Parent Node Connection,ZONE INLET NODE_UNIT1_FRONTROW_TOPFLOOR,AIRTERMINAL:SINGLEDUCT:CONSTANTVOLUME:NOREHEAT,ZONEDIRECTAIR_UNIT1_FRONTROW_TOPFLOOR,Outlet,1
 Non-Parent Node Connection,ZONE INLET NODE_UNIT2_FRONTROW_TOPFLOOR ATINLET,AIRTERMINAL:SINGLEDUCT:CONSTANTVOLUME:NOREHEAT,ZONEDIRECTAIR_UNIT2_FRONTROW_TOPFLOOR,Inlet,1
 Non-Parent Node Connection,ZONE INLET NODE_UNIT2_FRONTROW_TOPFLOOR,AIRTERMINAL:SINGLEDUCT:CONSTANTVOLUME:NOREHEAT,ZONEDIRECTAIR_UNIT2_FRONTROW_TOPFLOOR,Outlet,1
 Non-Parent Node Connection,ZONE INLET NODE_UNIT3_FRONTROW_TOPFLOOR ATINLET,AIRTERMINAL:SINGLEDUCT:CONSTANTVOLUME:NOREHEAT,ZONEDIRECTAIR_UNIT3_FRONTROW_TOPFLOOR,Inlet,1
 Non-Parent Node Connection,ZONE INLET NODE_UNIT3_FRONTROW_TOPFLOOR,AIRTERMINAL:SINGLEDUCT:CONSTANTVOLUME:NOREHEAT,ZONEDIRECTAIR_UNIT3_FRONTROW_TOPFLOOR,Outlet,1
 Non-Parent Node Connection,ZONE INLET NODE_UNIT1_BACKROW_TOPFLOOR ATINLET,AIRTERMINAL:SINGLEDUCT:CONSTANTVOLUME:NOREHEAT,ZONEDIRECTAIR_UNIT1_BACKROW_TOPFLOOR,Inlet,1
 Non-Parent Node Connection,ZONE INLET NODE_UNIT1_BACKROW_TOPFLOOR,AIRTERMINAL:SINGLEDUCT:CONSTANTVOLUME:NOREHEAT,ZONEDIRECTAIR_UNIT1_BACKROW_TOPFLOOR,Outlet,1
 Non-Parent Node Connection,ZONE INLET NODE_UNIT2_BACKROW_TOPFLOOR ATINLET,AIRTERMINAL:SINGLEDUCT:CONSTANTVOLUME:NOREHEAT,ZONEDIRECTAIR_UNIT2_BACKROW_TOPFLOOR,Inlet,1
 Non-Parent Node Connection,ZONE INLET NODE_UNIT2_BACKROW_TOPFLOOR,AIRTERMINAL:SINGLEDUCT:CONSTANTVOLUME:NOREHEAT,ZONEDIRECTAIR_UNIT2_BACKROW_TOPFLOOR,Outlet,1
 Non-Parent Node Connection,ZONE INLET NODE_UNIT3_BACKROW_TOPFLOOR ATINLET,AIRTERMINAL:SINGLEDUCT:CONSTANTVOLUME:NOREHEAT,ZONEDIRECTAIR_UNIT3_BACKROW_TOPFLOOR,Inlet,1
 Non-Parent Node Connection,ZONE INLET NODE_UNIT3_BACKROW_TOPFLOOR,AIRTERMINAL:SINGLEDUCT:CONSTANTVOLUME:NOREHEAT,ZONEDIRECTAIR_UNIT3_BACKROW_TOPFLOOR,Outlet,1
 Non-Parent Node Connection,RETURN AIR MIXER OUTLET_UNIT1_FRONTROW_BOTTOMFLOOR,AIRLOOPHVAC:ZONEMIXER,ZONE RETURN AIR MIXER_UNIT1_FRONTROW_BOTTOMFLOOR,Outlet,1
 Non-Parent Node Connection,ZONE OUTLET NODE_UNIT1_FRONTROW_BOTTOMFLOOR,AIRLOOPHVAC:ZONEMIXER,ZONE RETURN AIR MIXER_UNIT1_FRONTROW_BOTTOMFLOOR,Inlet,1
 Non-Parent Node Connection,RETURN AIR MIXER OUTLET_UNIT2_FRONTROW_BOTTOMFLOOR,AIRLOOPHVAC:ZONEMIXER,ZONE RETURN AIR MIXER_UNIT2_FRONTROW_BOTTOMFLOOR,Outlet,1
 Non-Parent Node Connection,ZONE OUTLET NODE_UNIT2_FRONTROW_BOTTOMFLOOR,AIRLOOPHVAC:ZONEMIXER,ZONE RETURN AIR MIXER_UNIT2_FRONTROW_BOTTOMFLOOR,Inlet,1
 Non-Parent Node Connection,RETURN AIR MIXER OUTLET_UNIT3_FRONTROW_BOTTOMFLOOR,AIRLOOPHVAC:ZONEMIXER,ZONE RETURN AIR MIXER_UNIT3_FRONTROW_BOTTOMFLOOR,Outlet,1
 Non-Parent Node Connection,ZONE OUTLET NODE_UNIT3_FRONTROW_BOTTOMFLOOR,AIRLOOPHVAC:ZONEMIXER,ZONE RETURN AIR MIXER_UNIT3_FRONTROW_BOTTOMFLOOR,Inlet,1
 Non-Parent Node Connection,RETURN AIR MIXER OUTLET_UNIT1_BACKROW_BOTTOMFLOOR,AIRLOOPHVAC:ZONEMIXER,ZONE RETURN AIR MIXER_UNIT1_BACKROW_BOTTOMFLOOR,Outlet,1
 Non-Parent Node Connection,ZONE OUTLET NODE_UNIT1_BACKROW_BOTTOMFLOOR,AIRLOOPHVAC:ZONEMIXER,ZONE RETURN AIR MIXER_UNIT1_BACKROW_BOTTOMFLOOR,Inlet,1
 Non-Parent Node Connection,RETURN AIR MIXER OUTLET_UNIT2_BACKROW_BOTTOMFLOOR,AIRLOOPHVAC:ZONEMIXER,ZONE RETURN AIR MIXER_UNIT2_BACKROW_BOTTOMFLOOR,Outlet,1
 Non-Parent Node Connection,ZONE OUTLET NODE_UNIT2_BACKROW_BOTTOMFLOOR,AIRLOOPHVAC:ZONEMIXER,ZONE RETURN AIR MIXER_UNIT2_BACKROW_BOTTOMFLOOR,Inlet,1
 Non-Parent Node Connection,RETURN AIR MIXER OUTLET_UNIT3_BACKROW_BOTTOMFLOOR,AIRLOOPHVAC:ZONEMIXER,ZONE RETURN AIR MIXER_UNIT3_BACKROW_BOTTOMFLOOR,Outlet,1
 Non-Parent Node Connection,ZONE OUTLET NODE_UNIT3_BACKROW_BOTTOMFLOOR,AIRLOOPHVAC:ZONEMIXER,ZONE RETURN AIR MIXER_UNIT3_BACKROW_BOTTOMFLOOR,Inlet,1
 Non-Parent Node Connection,RETURN AIR MIXER OUTLET_UNIT1_FRONTROW_MIDDLEFLOOR,AIRLOOPHVAC:ZONEMIXER,ZONE RETURN AIR MIXER_UNIT1_FRONTROW_MIDDLEFLOOR,Outlet,1
 Non-Parent Node Connection,ZONE OUTLET NODE_UNIT1_FRONTROW_MIDDLEFLOOR,AIRLOOPHVAC:ZONEMIXER,ZONE RETURN AIR MIXER_UNIT1_FRONTROW_MIDDLEFLOOR,Inlet,1
 Non-Parent Node Connection,RETURN AIR MIXER OUTLET_UNIT2_FRONTROW_MIDDLEFLOOR,AIRLOOPHVAC:ZONEMIXER,ZONE RETURN AIR MIXER_UNIT2_FRONTROW_MIDDLEFLOOR,Outlet,1
 Non-Parent Node Connection,ZONE OUTLET NODE_UNIT2_FRONTROW_MIDDLEFLOOR,AIRLOOPHVAC:ZONEMIXER,ZONE RETURN AIR MIXER_UNIT2_FRONTROW_MIDDLEFLOOR,Inlet,1
 Non-Parent Node Connection,RETURN AIR MIXER OUTLET_UNIT3_FRONTROW_MIDDLEFLOOR,AIRLOOPHVAC:ZONEMIXER,ZONE RETURN AIR MIXER_UNIT3_FRONTROW_MIDDLEFLOOR,Outlet,1
 Non-Parent Node Connection,ZONE OUTLET NODE_UNIT3_FRONTROW_MIDDLEFLOOR,AIRLOOPHVAC:ZONEMIXER,ZONE RETURN AIR MIXER_UNIT3_FRONTROW_MIDDLEFLOOR,Inlet,1
 Non-Parent Node Connection,RETURN AIR MIXER OUTLET_UNIT1_BACKROW_MIDDLEFLOOR,AIRLOOPHVAC:ZONEMIXER,ZONE RETURN AIR MIXER_UNIT1_BACKROW_MIDDLEFLOOR,Outlet,1
 Non-Parent Node Connection,ZONE OUTLET NODE_UNIT1_BACKROW_MIDDLEFLOOR,AIRLOOPHVAC:ZONEMIXER,ZONE RETURN AIR MIXER_UNIT1_BACKROW_MIDDLEFLOOR,Inlet,1
 Non-Parent Node Connection,RETURN AIR MIXER OUTLET_UNIT2_BACKROW_MIDDLEFLOOR,AIRLOOPHVAC:ZONEMIXER,ZONE RETURN AIR MIXER_UNIT2_BACKROW_MIDDLEFLOOR,Outlet,1
 Non-Parent Node Connection,ZONE OUTLET NODE_UNIT2_BACKROW_MIDDLEFLOOR,AIRLOOPHVAC:ZONEMIXER,ZONE RETURN AIR MIXER_UNIT2_BACKROW_MIDDLEFLOOR,Inlet,1
 Non-Parent Node Connection,RETURN AIR MIXER OUTLET_UNIT3_BACKROW_MIDDLEFLOOR,AIRLOOPHVAC:ZONEMIXER,ZONE RETURN AIR MIXER_UNIT3_BACKROW_MIDDLEFLOOR,Outlet,1
 Non-Parent Node Connection,ZONE OUTLET NODE_UNIT3_BACKROW_MIDDLEFLOOR,AIRLOOPHVAC:ZONEMIXER,ZONE RETURN AIR MIXER_UNIT3_BACKROW_MIDDLEFLOOR,Inlet,1
 Non-Parent Node Connection,RETURN AIR MIXER OUTLET_UNIT1_FRONTROW_TOPFLOOR,AIRLOOPHVAC:ZONEMIXER,ZONE RETURN AIR MIXER_UNIT1_FRONTROW_TOPFLOOR,Outlet,1
 Non-Parent Node Connection,ZONE OUTLET NODE_UNIT1_FRONTROW_TOPFLOOR,AIRLOOPHVAC:ZONEMIXER,ZONE RETURN AIR MIXER_UNIT1_FRONTROW_TOPFLOOR,Inlet,1
 Non-Parent Node Connection,RETURN AIR MIXER OUTLET_UNIT2_FRONTROW_TOPFLOOR,AIRLOOPHVAC:ZONEMIXER,ZONE RETURN AIR MIXER_UNIT2_FRONTROW_TOPFLOOR,Outlet,1
 Non-Parent Node Connection,ZONE OUTLET NODE_UNIT2_FRONTROW_TOPFLOOR,AIRLOOPHVAC:ZONEMIXER,ZONE RETURN AIR MIXER_UNIT2_FRONTROW_TOPFLOOR,Inlet,1
 Non-Parent Node Connection,RETURN AIR MIXER OUTLET_UNIT3_FRONTROW_TOPFLOOR,AIRLOOPHVAC:ZONEMIXER,ZONE RETURN AIR MIXER_UNIT3_FRONTROW_TOPFLOOR,Outlet,1
 Non-Parent Node Connection,ZONE OUTLET NODE_UNIT3_FRONTROW_TOPFLOOR,AIRLOOPHVAC:ZONEMIXER,ZONE RETURN AIR MIXER_UNIT3_FRONTROW_TOPFLOOR,Inlet,1
 Non-Parent Node Connection,RETURN AIR MIXER OUTLET_UNIT1_BACKROW_TOPFLOOR,AIRLOOPHVAC:ZONEMIXER,ZONE RETURN AIR MIXER_UNIT1_BACKROW_TOPFLOOR,Outlet,1
 Non-Parent Node Connection,ZONE OUTLET NODE_UNIT1_BACKROW_TOPFLOOR,AIRLOOPHVAC:ZONEMIXER,ZONE RETURN AIR MIXER_UNIT1_BACKROW_TOPFLOOR,Inlet,1
 Non-Parent Node Connection,RETURN AIR MIXER OUTLET_UNIT2_BACKROW_TOPFLOOR,AIRLOOPHVAC:ZONEMIXER,ZONE RETURN AIR MIXER_UNIT2_BACKROW_TOPFLOOR,Outlet,1
 Non-Parent Node Connection,ZONE OUTLET NODE_UNIT2_BACKROW_TOPFLOOR,AIRLOOPHVAC:ZONEMIXER,ZONE RETURN AIR MIXER_UNIT2_BACKROW_TOPFLOOR,Inlet,1
 Non-Parent Node Connection,RETURN AIR MIXER OUTLET_UNIT3_BACKROW_TOPFLOOR,AIRLOOPHVAC:ZONEMIXER,ZONE RETURN AIR MIXER_UNIT3_BACKROW_TOPFLOOR,Outlet,1
 Non-Parent Node Connection,ZONE OUTLET NODE_UNIT3_BACKROW_TOPFLOOR,AIRLOOPHVAC:ZONEMIXER,ZONE RETURN AIR MIXER_UNIT3_BACKROW_TOPFLOOR,Inlet,1
 Non-Parent Node Connection,SUPP HEATING COIL AIR INLET NODE_UNIT1_FRONTROW_BOTTOMFLOOR,COIL:HEATING:ELECTRIC,SUPP HEATING COIL_UNIT1_FRONTROW_BOTTOMFLOOR,Inlet,1
 Non-Parent Node Connection,AIR LOOP OUTLET NODE_UNIT1_FRONTROW_BOTTOMFLOOR,COIL:HEATING:ELECTRIC,SUPP HEATING COIL_UNIT1_FRONTROW_BOTTOMFLOOR,Outlet,1
 Non-Parent Node Connection,SUPP HEATING COIL AIR INLET NODE_UNIT2_FRONTROW_BOTTOMFLOOR,COIL:HEATING:ELECTRIC,SUPP HEATING COIL_UNIT2_FRONTROW_BOTTOMFLOOR,Inlet,1
 Non-Parent Node Connection,AIR LOOP OUTLET NODE_UNIT2_FRONTROW_BOTTOMFLOOR,COIL:HEATING:ELECTRIC,SUPP HEATING COIL_UNIT2_FRONTROW_BOTTOMFLOOR,Outlet,1
 Non-Parent Node Connection,SUPP HEATING COIL AIR INLET NODE_UNIT3_FRONTROW_BOTTOMFLOOR,COIL:HEATING:ELECTRIC,SUPP HEATING COIL_UNIT3_FRONTROW_BOTTOMFLOOR,Inlet,1
 Non-Parent Node Connection,AIR LOOP OUTLET NODE_UNIT3_FRONTROW_BOTTOMFLOOR,COIL:HEATING:ELECTRIC,SUPP HEATING COIL_UNIT3_FRONTROW_BOTTOMFLOOR,Outlet,1
 Non-Parent Node Connection,SUPP HEATING COIL AIR INLET NODE_UNIT1_BACKROW_BOTTOMFLOOR,COIL:HEATING:ELECTRIC,SUPP HEATING COIL_UNIT1_BACKROW_BOTTOMFLOOR,Inlet,1
 Non-Parent Node Connection,AIR LOOP OUTLET NODE_UNIT1_BACKROW_BOTTOMFLOOR,COIL:HEATING:ELECTRIC,SUPP HEATING COIL_UNIT1_BACKROW_BOTTOMFLOOR,Outlet,1
 Non-Parent Node Connection,SUPP HEATING COIL AIR INLET NODE_UNIT2_BACKROW_BOTTOMFLOOR,COIL:HEATING:ELECTRIC,SUPP HEATING COIL_UNIT2_BACKROW_BOTTOMFLOOR,Inlet,1
 Non-Parent Node Connection,AIR LOOP OUTLET NODE_UNIT2_BACKROW_BOTTOMFLOOR,COIL:HEATING:ELECTRIC,SUPP HEATING COIL_UNIT2_BACKROW_BOTTOMFLOOR,Outlet,1
 Non-Parent Node Connection,SUPP HEATING COIL AIR INLET NODE_UNIT3_BACKROW_BOTTOMFLOOR,COIL:HEATING:ELECTRIC,SUPP HEATING COIL_UNIT3_BACKROW_BOTTOMFLOOR,Inlet,1
 Non-Parent Node Connection,AIR LOOP OUTLET NODE_UNIT3_BACKROW_BOTTOMFLOOR,COIL:HEATING:ELECTRIC,SUPP HEATING COIL_UNIT3_BACKROW_BOTTOMFLOOR,Outlet,1
 Non-Parent Node Connection,SUPP HEATING COIL AIR INLET NODE_UNIT1_FRONTROW_MIDDLEFLOOR,COIL:HEATING:ELECTRIC,SUPP HEATING COIL_UNIT1_FRONTROW_MIDDLEFLOOR,Inlet,1
 Non-Parent Node Connection,AIR LOOP OUTLET NODE_UNIT1_FRONTROW_MIDDLEFLOOR,COIL:HEATING:ELECTRIC,SUPP HEATING COIL_UNIT1_FRONTROW_MIDDLEFLOOR,Outlet,1
 Non-Parent Node Connection,SUPP HEATING COIL AIR INLET NODE_UNIT2_FRONTROW_MIDDLEFLOOR,COIL:HEATING:ELECTRIC,SUPP HEATING COIL_UNIT2_FRONTROW_MIDDLEFLOOR,Inlet,1
 Non-Parent Node Connection,AIR LOOP OUTLET NODE_UNIT2_FRONTROW_MIDDLEFLOOR,COIL:HEATING:ELECTRIC,SUPP HEATING COIL_UNIT2_FRONTROW_MIDDLEFLOOR,Outlet,1
 Non-Parent Node Connection,SUPP HEATING COIL AIR INLET NODE_UNIT3_FRONTROW_MIDDLEFLOOR,COIL:HEATING:ELECTRIC,SUPP HEATING COIL_UNIT3_FRONTROW_MIDDLEFLOOR,Inlet,1
 Non-Parent Node Connection,AIR LOOP OUTLET NODE_UNIT3_FRONTROW_MIDDLEFLOOR,COIL:HEATING:ELECTRIC,SUPP HEATING COIL_UNIT3_FRONTROW_MIDDLEFLOOR,Outlet,1
 Non-Parent Node Connection,SUPP HEATING COIL AIR INLET NODE_UNIT1_BACKROW_MIDDLEFLOOR,COIL:HEATING:ELECTRIC,SUPP HEATING COIL_UNIT1_BACKROW_MIDDLEFLOOR,Inlet,1
 Non-Parent Node Connection,AIR LOOP OUTLET NODE_UNIT1_BACKROW_MIDDLEFLOOR,COIL:HEATING:ELECTRIC,SUPP HEATING COIL_UNIT1_BACKROW_MIDDLEFLOOR,Outlet,1
 Non-Parent Node Connection,SUPP HEATING COIL AIR INLET NODE_UNIT2_BACKROW_MIDDLEFLOOR,COIL:HEATING:ELECTRIC,SUPP HEATING COIL_UNIT2_BACKROW_MIDDLEFLOOR,Inlet,1
 Non-Parent Node Connection,AIR LOOP OUTLET NODE_UNIT2_BACKROW_MIDDLEFLOOR,COIL:HEATING:ELECTRIC,SUPP HEATING COIL_UNIT2_BACKROW_MIDDLEFLOOR,Outlet,1
 Non-Parent Node Connection,SUPP HEATING COIL AIR INLET NODE_UNIT3_BACKROW_MIDDLEFLOOR,COIL:HEATING:ELECTRIC,SUPP HEATING COIL_UNIT3_BACKROW_MIDDLEFLOOR,Inlet,1
 Non-Parent Node Connection,AIR LOOP OUTLET NODE_UNIT3_BACKROW_MIDDLEFLOOR,COIL:HEATING:ELECTRIC,SUPP HEATING COIL_UNIT3_BACKROW_MIDDLEFLOOR,Outlet,1
 Non-Parent Node Connection,SUPP HEATING COIL AIR INLET NODE_UNIT1_FRONTROW_TOPFLOOR,COIL:HEATING:ELECTRIC,SUPP HEATING COIL_UNIT1_FRONTROW_TOPFLOOR,Inlet,1
 Non-Parent Node Connection,AIR LOOP OUTLET NODE_UNIT1_FRONTROW_TOPFLOOR,COIL:HEATING:ELECTRIC,SUPP HEATING COIL_UNIT1_FRONTROW_TOPFLOOR,Outlet,1
 Non-Parent Node Connection,SUPP HEATING COIL AIR INLET NODE_UNIT2_FRONTROW_TOPFLOOR,COIL:HEATING:ELECTRIC,SUPP HEATING COIL_UNIT2_FRONTROW_TOPFLOOR,Inlet,1
 Non-Parent Node Connection,AIR LOOP OUTLET NODE_UNIT2_FRONTROW_TOPFLOOR,COIL:HEATING:ELECTRIC,SUPP HEATING COIL_UNIT2_FRONTROW_TOPFLOOR,Outlet,1
 Non-Parent Node Connection,SUPP HEATING COIL AIR INLET NODE_UNIT3_FRONTROW_TOPFLOOR,COIL:HEATING:ELECTRIC,SUPP HEATING COIL_UNIT3_FRONTROW_TOPFLOOR,Inlet,1
 Non-Parent Node Connection,AIR LOOP OUTLET NODE_UNIT3_FRONTROW_TOPFLOOR,COIL:HEATING:ELECTRIC,SUPP HEATING COIL_UNIT3_FRONTROW_TOPFLOOR,Outlet,1
 Non-Parent Node Connection,SUPP HEATING COIL AIR INLET NODE_UNIT1_BACKROW_TOPFLOOR,COIL:HEATING:ELECTRIC,SUPP HEATING COIL_UNIT1_BACKROW_TOPFLOOR,Inlet,1
 Non-Parent Node Connection,AIR LOOP OUTLET NODE_UNIT1_BACKROW_TOPFLOOR,COIL:HEATING:ELECTRIC,SUPP HEATING COIL_UNIT1_BACKROW_TOPFLOOR,Outlet,1
 Non-Parent Node Connection,SUPP HEATING COIL AIR INLET NODE_UNIT2_BACKROW_TOPFLOOR,COIL:HEATING:ELECTRIC,SUPP HEATING COIL_UNIT2_BACKROW_TOPFLOOR,Inlet,1
 Non-Parent Node Connection,AIR LOOP OUTLET NODE_UNIT2_BACKROW_TOPFLOOR,COIL:HEATING:ELECTRIC,SUPP HEATING COIL_UNIT2_BACKROW_TOPFLOOR,Outlet,1
 Non-Parent Node Connection,SUPP HEATING COIL AIR INLET NODE_UNIT3_BACKROW_TOPFLOOR,COIL:HEATING:ELECTRIC,SUPP HEATING COIL_UNIT3_BACKROW_TOPFLOOR,Inlet,1
 Non-Parent Node Connection,AIR LOOP OUTLET NODE_UNIT3_BACKROW_TOPFLOOR,COIL:HEATING:ELECTRIC,SUPP HEATING COIL_UNIT3_BACKROW_TOPFLOOR,Outlet,1
 Non-Parent Node Connection,MAINS INLET NODE_UNIT1_FRONTROW_BOTTOMFLOOR,PUMP:VARIABLESPEED,MAINS PRESSURE_UNIT1_FRONTROW_BOTTOMFLOOR,Inlet,1
 Non-Parent Node Connection,MAINS PRESSURE OUTLET NODE_UNIT1_FRONTROW_BOTTOMFLOOR,PUMP:VARIABLESPEED,MAINS PRESSURE_UNIT1_FRONTROW_BOTTOMFLOOR,Outlet,1
 Non-Parent Node Connection,MAINS INLET NODE_UNIT2_FRONTROW_BOTTOMFLOOR,PUMP:VARIABLESPEED,MAINS PRESSURE_UNIT2_FRONTROW_BOTTOMFLOOR,Inlet,1
 Non-Parent Node Connection,MAINS PRESSURE OUTLET NODE_UNIT2_FRONTROW_BOTTOMFLOOR,PUMP:VARIABLESPEED,MAINS PRESSURE_UNIT2_FRONTROW_BOTTOMFLOOR,Outlet,1
 Non-Parent Node Connection,MAINS INLET NODE_UNIT3_FRONTROW_BOTTOMFLOOR,PUMP:VARIABLESPEED,MAINS PRESSURE_UNIT3_FRONTROW_BOTTOMFLOOR,Inlet,1
 Non-Parent Node Connection,MAINS PRESSURE OUTLET NODE_UNIT3_FRONTROW_BOTTOMFLOOR,PUMP:VARIABLESPEED,MAINS PRESSURE_UNIT3_FRONTROW_BOTTOMFLOOR,Outlet,1
 Non-Parent Node Connection,MAINS INLET NODE_UNIT1_BACKROW_BOTTOMFLOOR,PUMP:VARIABLESPEED,MAINS PRESSURE_UNIT1_BACKROW_BOTTOMFLOOR,Inlet,1
 Non-Parent Node Connection,MAINS PRESSURE OUTLET NODE_UNIT1_BACKROW_BOTTOMFLOOR,PUMP:VARIABLESPEED,MAINS PRESSURE_UNIT1_BACKROW_BOTTOMFLOOR,Outlet,1
 Non-Parent Node Connection,MAINS INLET NODE_UNIT2_BACKROW_BOTTOMFLOOR,PUMP:VARIABLESPEED,MAINS PRESSURE_UNIT2_BACKROW_BOTTOMFLOOR,Inlet,1
 Non-Parent Node Connection,MAINS PRESSURE OUTLET NODE_UNIT2_BACKROW_BOTTOMFLOOR,PUMP:VARIABLESPEED,MAINS PRESSURE_UNIT2_BACKROW_BOTTOMFLOOR,Outlet,1
 Non-Parent Node Connection,MAINS INLET NODE_UNIT3_BACKROW_BOTTOMFLOOR,PUMP:VARIABLESPEED,MAINS PRESSURE_UNIT3_BACKROW_BOTTOMFLOOR,Inlet,1
 Non-Parent Node Connection,MAINS PRESSURE OUTLET NODE_UNIT3_BACKROW_BOTTOMFLOOR,PUMP:VARIABLESPEED,MAINS PRESSURE_UNIT3_BACKROW_BOTTOMFLOOR,Outlet,1
 Non-Parent Node Connection,MAINS INLET NODE_UNIT1_FRONTROW_MIDDLEFLOOR,PUMP:VARIABLESPEED,MAINS PRESSURE_UNIT1_FRONTROW_MIDDLEFLOOR,Inlet,1
 Non-Parent Node Connection,MAINS PRESSURE OUTLET NODE_UNIT1_FRONTROW_MIDDLEFLOOR,PUMP:VARIABLESPEED,MAINS PRESSURE_UNIT1_FRONTROW_MIDDLEFLOOR,Outlet,1
 Non-Parent Node Connection,MAINS INLET NODE_UNIT2_FRONTROW_MIDDLEFLOOR,PUMP:VARIABLESPEED,MAINS PRESSURE_UNIT2_FRONTROW_MIDDLEFLOOR,Inlet,1
 Non-Parent Node Connection,MAINS PRESSURE OUTLET NODE_UNIT2_FRONTROW_MIDDLEFLOOR,PUMP:VARIABLESPEED,MAINS PRESSURE_UNIT2_FRONTROW_MIDDLEFLOOR,Outlet,1
 Non-Parent Node Connection,MAINS INLET NODE_UNIT3_FRONTROW_MIDDLEFLOOR,PUMP:VARIABLESPEED,MAINS PRESSURE_UNIT3_FRONTROW_MIDDLEFLOOR,Inlet,1
 Non-Parent Node Connection,MAINS PRESSURE OUTLET NODE_UNIT3_FRONTROW_MIDDLEFLOOR,PUMP:VARIABLESPEED,MAINS PRESSURE_UNIT3_FRONTROW_MIDDLEFLOOR,Outlet,1
 Non-Parent Node Connection,MAINS INLET NODE_UNIT1_BACKROW_MIDDLEFLOOR,PUMP:VARIABLESPEED,MAINS PRESSURE_UNIT1_BACKROW_MIDDLEFLOOR,Inlet,1
 Non-Parent Node Connection,MAINS PRESSURE OUTLET NODE_UNIT1_BACKROW_MIDDLEFLOOR,PUMP:VARIABLESPEED,MAINS PRESSURE_UNIT1_BACKROW_MIDDLEFLOOR,Outlet,1
 Non-Parent Node Connection,MAINS INLET NODE_UNIT2_BACKROW_MIDDLEFLOOR,PUMP:VARIABLESPEED,MAINS PRESSURE_UNIT2_BACKROW_MIDDLEFLOOR,Inlet,1
 Non-Parent Node Connection,MAINS PRESSURE OUTLET NODE_UNIT2_BACKROW_MIDDLEFLOOR,PUMP:VARIABLESPEED,MAINS PRESSURE_UNIT2_BACKROW_MIDDLEFLOOR,Outlet,1
 Non-Parent Node Connection,MAINS INLET NODE_UNIT3_BACKROW_MIDDLEFLOOR,PUMP:VARIABLESPEED,MAINS PRESSURE_UNIT3_BACKROW_MIDDLEFLOOR,Inlet,1
 Non-Parent Node Connection,MAINS PRESSURE OUTLET NODE_UNIT3_BACKROW_MIDDLEFLOOR,PUMP:VARIABLESPEED,MAINS PRESSURE_UNIT3_BACKROW_MIDDLEFLOOR,Outlet,1
 Non-Parent Node Connection,MAINS INLET NODE_UNIT1_FRONTROW_TOPFLOOR,PUMP:VARIABLESPEED,MAINS PRESSURE_UNIT1_FRONTROW_TOPFLOOR,Inlet,1
 Non-Parent Node Connection,MAINS PRESSURE OUTLET NODE_UNIT1_FRONTROW_TOPFLOOR,PUMP:VARIABLESPEED,MAINS PRESSURE_UNIT1_FRONTROW_TOPFLOOR,Outlet,1
 Non-Parent Node Connection,MAINS INLET NODE_UNIT2_FRONTROW_TOPFLOOR,PUMP:VARIABLESPEED,MAINS PRESSURE_UNIT2_FRONTROW_TOPFLOOR,Inlet,1
 Non-Parent Node Connection,MAINS PRESSURE OUTLET NODE_UNIT2_FRONTROW_TOPFLOOR,PUMP:VARIABLESPEED,MAINS PRESSURE_UNIT2_FRONTROW_TOPFLOOR,Outlet,1
 Non-Parent Node Connection,MAINS INLET NODE_UNIT3_FRONTROW_TOPFLOOR,PUMP:VARIABLESPEED,MAINS PRESSURE_UNIT3_FRONTROW_TOPFLOOR,Inlet,1
 Non-Parent Node Connection,MAINS PRESSURE OUTLET NODE_UNIT3_FRONTROW_TOPFLOOR,PUMP:VARIABLESPEED,MAINS PRESSURE_UNIT3_FRONTROW_TOPFLOOR,Outlet,1
 Non-Parent Node Connection,MAINS INLET NODE_UNIT1_BACKROW_TOPFLOOR,PUMP:VARIABLESPEED,MAINS PRESSURE_UNIT1_BACKROW_TOPFLOOR,Inlet,1
 Non-Parent Node Connection,MAINS PRESSURE OUTLET NODE_UNIT1_BACKROW_TOPFLOOR,PUMP:VARIABLESPEED,MAINS PRESSURE_UNIT1_BACKROW_TOPFLOOR,Outlet,1
 Non-Parent Node Connection,MAINS INLET NODE_UNIT2_BACKROW_TOPFLOOR,PUMP:VARIABLESPEED,MAINS PRESSURE_UNIT2_BACKROW_TOPFLOOR,Inlet,1
 Non-Parent Node Connection,MAINS PRESSURE OUTLET NODE_UNIT2_BACKROW_TOPFLOOR,PUMP:VARIABLESPEED,MAINS PRESSURE_UNIT2_BACKROW_TOPFLOOR,Outlet,1
 Non-Parent Node Connection,MAINS INLET NODE_UNIT3_BACKROW_TOPFLOOR,PUMP:VARIABLESPEED,MAINS PRESSURE_UNIT3_BACKROW_TOPFLOOR,Inlet,1
 Non-Parent Node Connection,MAINS PRESSURE OUTLET NODE_UNIT3_BACKROW_TOPFLOOR,PUMP:VARIABLESPEED,MAINS PRESSURE_UNIT3_BACKROW_TOPFLOOR,Outlet,1
